BEGIN Configuration File: ./examples/project_inputs/config-iqevc_tp-uniform_c1ir-0.05_c0ir-0.33
//
// EVC Router Config File -         
//
// Jason Deng, Mike Wang        
//        

//
// Flow control
//

num_vcs     = 5;
vc_buf_size = 6;

wait_for_tail_credit = 0;

vc_allocator = select;
sw_allocator = select;
alloc_iters  = 2;

credit_delay   = 2;
routing_delay  = 1;
vc_alloc_delay = 1;
sw_alloc_delay = 1;
st_final_delay = 1;

input_speedup     = 1;
output_speedup    = 1;
internal_speedup  = 1.0;

//
// Traffic
//

sim_type = latency;

warmup_periods = 3;
sample_period  = 1000;
sim_count = 1;

//
//topoogy
//

topology = mesh;
k  = 8;
n  = 2;

//
// Routing
//

router = iqevc;
routing_function = dor;

packet_size = 2;
use_read_write = 0;

traffic  = uniform;
injection_rate = {0.33,0.05};
injection_rate_uses_flits = 1;

classes = 2;
class_priority = {0,1};
priority = class;

noq = 0;
hold_switch_for_packet = 0;
vc_prioritize_empty = 0;

//
// express virtual channel settings
//

evc = 1;
num_evcs = 1;
evc_prioritized_class = 1;
selective_vc_request = 1;
hold_switch_for_evc_packet = 1;
evc_next_route = 1;

END Configuration File: ./examples/project_inputs/config-iqevc_tp-uniform_c1ir-0.05_c0ir-0.33
0
Class 0:
Minimum packet latency = 8
Average packet latency = 48.2397
Maximum packet latency = 235
Minimum network latency = 8
Average network latency = 47.8571
Maximum network latency = 235
Slowest packet = 7564
Minimum flit latency = 5
Average flit latency = 45.9525
Maximum flit latency = 234
Slowest flit = 15129
Minimum fragmentation = 0
Average fragmentation = 1.79161
Maximum fragmentation = 27
Minimum injected packet rate = 0.136 (at node 50)
Average injected packet rate = 0.162469
Maximum injected packet rate = 0.184 (at node 35)
Minimum accepted packet rate = 0.129 (at node 52)
Average accepted packet rate = 0.154156
Maximum accepted packet rate = 0.176 (at node 16)
Minimum injected flit rate = 0.272 (at node 50)
Average injected flit rate = 0.32475
Maximum injected flit rate = 0.368 (at node 35)
Minimum accepted flit rate = 0.258 (at node 52)
Average accepted flit rate = 0.30875
Maximum accepted flit rate = 0.355 (at node 16)
Average injected packet length = 1.99885
Average accepted packet length = 2.00284
Total in-flight flits = 1036 (0 measured)
Class 1:
Minimum packet latency = 8
Average packet latency = 35.5259
Maximum packet latency = 79
Minimum network latency = 8
Average network latency = 35.5038
Maximum network latency = 79
Slowest packet = 10666
Minimum flit latency = 7
Average flit latency = 34.5038
Maximum flit latency = 78
Slowest flit = 21332
Minimum fragmentation = 0
Average fragmentation = 0
Maximum fragmentation = 0
Minimum injected packet rate = 0.013 (at node 4)
Average injected packet rate = 0.0256562
Maximum injected packet rate = 0.045 (at node 36)
Minimum accepted packet rate = 0.012 (at node 62)
Average accepted packet rate = 0.02475
Maximum accepted packet rate = 0.035 (at node 9)
Minimum injected flit rate = 0.026 (at node 4)
Average injected flit rate = 0.0513125
Maximum injected flit rate = 0.09 (at node 36)
Minimum accepted flit rate = 0.024 (at node 62)
Average accepted flit rate = 0.0495
Maximum accepted flit rate = 0.07 (at node 9)
Average injected packet length = 2
Average accepted packet length = 2
Total in-flight flits = 116 (0 measured)
latency change    = 1
throughput change = 1
latency change    = 1
throughput change = 1
0
Class 0:
Minimum packet latency = 8
Average packet latency = 48.7638
Maximum packet latency = 241
Minimum network latency = 8
Average network latency = 48.3757
Maximum network latency = 241
Slowest packet = 19950
Minimum flit latency = 5
Average flit latency = 46.4522
Maximum flit latency = 240
Slowest flit = 39901
Minimum fragmentation = 0
Average fragmentation = 1.80415
Maximum fragmentation = 34
Minimum injected packet rate = 0.143 (at node 37)
Average injected packet rate = 0.16325
Maximum injected packet rate = 0.18 (at node 3)
Minimum accepted packet rate = 0.1395 (at node 52)
Average accepted packet rate = 0.159242
Maximum accepted packet rate = 0.175 (at node 39)
Minimum injected flit rate = 0.2855 (at node 37)
Average injected flit rate = 0.326406
Maximum injected flit rate = 0.36 (at node 3)
Minimum accepted flit rate = 0.28 (at node 52)
Average accepted flit rate = 0.31875
Maximum accepted flit rate = 0.3505 (at node 39)
Average injected packet length = 1.99943
Average accepted packet length = 2.00167
Total in-flight flits = 994 (0 measured)
Class 1:
Minimum packet latency = 8
Average packet latency = 35.7494
Maximum packet latency = 94
Minimum network latency = 8
Average network latency = 35.7237
Maximum network latency = 94
Slowest packet = 21726
Minimum flit latency = 7
Average flit latency = 34.7194
Maximum flit latency = 93
Slowest flit = 43452
Minimum fragmentation = 0
Average fragmentation = 0
Maximum fragmentation = 0
Minimum injected packet rate = 0.016 (at node 4)
Average injected packet rate = 0.0251094
Maximum injected packet rate = 0.042 (at node 36)
Minimum accepted packet rate = 0.017 (at node 27)
Average accepted packet rate = 0.0246563
Maximum accepted packet rate = 0.031 (at node 11)
Minimum injected flit rate = 0.032 (at node 4)
Average injected flit rate = 0.0501953
Maximum injected flit rate = 0.084 (at node 36)
Minimum accepted flit rate = 0.034 (at node 27)
Average accepted flit rate = 0.0493281
Maximum accepted flit rate = 0.0625 (at node 11)
Average injected packet length = 1.99907
Average accepted packet length = 2.00063
Total in-flight flits = 114 (0 measured)
latency change    = 0.0107469
throughput change = 0.0313725
latency change    = 0.00625137
throughput change = 0.00348432
0
Class 0:
Minimum packet latency = 8
Average packet latency = 49.1177
Maximum packet latency = 214
Minimum network latency = 8
Average network latency = 48.732
Maximum network latency = 214
Slowest packet = 22060
Minimum flit latency = 7
Average flit latency = 46.7685
Maximum flit latency = 213
Slowest flit = 44120
Minimum fragmentation = 0
Average fragmentation = 1.85694
Maximum fragmentation = 25
Minimum injected packet rate = 0.138 (at node 39)
Average injected packet rate = 0.164
Maximum injected packet rate = 0.19 (at node 43)
Minimum accepted packet rate = 0.138 (at node 17)
Average accepted packet rate = 0.164922
Maximum accepted packet rate = 0.193 (at node 27)
Minimum injected flit rate = 0.276 (at node 39)
Average injected flit rate = 0.328078
Maximum injected flit rate = 0.38 (at node 43)
Minimum accepted flit rate = 0.277 (at node 17)
Average accepted flit rate = 0.329703
Maximum accepted flit rate = 0.384 (at node 27)
Average injected packet length = 2.00048
Average accepted packet length = 1.99915
Total in-flight flits = 883 (0 measured)
Class 1:
Minimum packet latency = 8
Average packet latency = 35.6537
Maximum packet latency = 82
Minimum network latency = 8
Average network latency = 35.629
Maximum network latency = 82
Slowest packet = 26341
Minimum flit latency = 7
Average flit latency = 34.6373
Maximum flit latency = 81
Slowest flit = 52682
Minimum fragmentation = 0
Average fragmentation = 0
Maximum fragmentation = 0
Minimum injected packet rate = 0.015 (at node 36)
Average injected packet rate = 0.0245156
Maximum injected packet rate = 0.034 (at node 12)
Minimum accepted packet rate = 0.014 (at node 11)
Average accepted packet rate = 0.0245938
Maximum accepted packet rate = 0.033 (at node 23)
Minimum injected flit rate = 0.03 (at node 36)
Average injected flit rate = 0.0490781
Maximum injected flit rate = 0.068 (at node 12)
Minimum accepted flit rate = 0.027 (at node 11)
Average accepted flit rate = 0.0492031
Maximum accepted flit rate = 0.066 (at node 23)
Average injected packet length = 2.00191
Average accepted packet length = 2.00064
Total in-flight flits = 103 (0 measured)
latency change    = 0.00720506
throughput change = 0.0332212
latency change    = 0.00268185
throughput change = 0.00254049
Warmed up ...Time used is 3000 cycles
1
Class 0:
Minimum packet latency = 8
Average packet latency = 48.085
Maximum packet latency = 191
Minimum network latency = 8
Average network latency = 47.6777
Maximum network latency = 189
Slowest packet = 45121
Minimum flit latency = 7
Average flit latency = 46.1654
Maximum flit latency = 188
Slowest flit = 90243
Minimum fragmentation = 0
Average fragmentation = 1.80685
Maximum fragmentation = 26
Minimum injected packet rate = 0.134 (at node 18)
Average injected packet rate = 0.165609
Maximum injected packet rate = 0.2 (at node 23)
Minimum accepted packet rate = 0.133 (at node 43)
Average accepted packet rate = 0.164109
Maximum accepted packet rate = 0.191 (at node 8)
Minimum injected flit rate = 0.268 (at node 18)
Average injected flit rate = 0.331219
Maximum injected flit rate = 0.399 (at node 23)
Minimum accepted flit rate = 0.267 (at node 43)
Average accepted flit rate = 0.328328
Maximum accepted flit rate = 0.383 (at node 8)
Average injected packet length = 2
Average accepted packet length = 2.00067
Total in-flight flits = 1068 (1068 measured)
Class 1:
Minimum packet latency = 8
Average packet latency = 35.6197
Maximum packet latency = 81
Minimum network latency = 8
Average network latency = 35.5921
Maximum network latency = 81
Slowest packet = 44876
Minimum flit latency = 7
Average flit latency = 34.7282
Maximum flit latency = 80
Slowest flit = 89752
Minimum fragmentation = 0
Average fragmentation = 0
Maximum fragmentation = 0
Minimum injected packet rate = 0.014 (at node 25)
Average injected packet rate = 0.0246719
Maximum injected packet rate = 0.037 (at node 47)
Minimum accepted packet rate = 0.015 (at node 23)
Average accepted packet rate = 0.0245781
Maximum accepted packet rate = 0.035 (at node 9)
Minimum injected flit rate = 0.028 (at node 25)
Average injected flit rate = 0.0492969
Maximum injected flit rate = 0.074 (at node 47)
Minimum accepted flit rate = 0.03 (at node 23)
Average accepted flit rate = 0.0491562
Maximum accepted flit rate = 0.07 (at node 9)
Average injected packet length = 1.9981
Average accepted packet length = 2
Total in-flight flits = 115 (115 measured)
latency change    = 0.0214763
throughput change = 0.00418788
latency change    = 0.000954852
throughput change = 0.000953592
1
Class 0:
Minimum packet latency = 8
Average packet latency = 49.5849
Maximum packet latency = 205
Minimum network latency = 8
Average network latency = 49.1836
Maximum network latency = 205
Slowest packet = 46169
Minimum flit latency = 5
Average flit latency = 47.428
Maximum flit latency = 204
Slowest flit = 92339
Minimum fragmentation = 0
Average fragmentation = 1.80494
Maximum fragmentation = 31
Minimum injected packet rate = 0.143 (at node 18)
Average injected packet rate = 0.16493
Maximum injected packet rate = 0.1825 (at node 12)
Minimum accepted packet rate = 0.145 (at node 6)
Average accepted packet rate = 0.164914
Maximum accepted packet rate = 0.185 (at node 57)
Minimum injected flit rate = 0.2855 (at node 18)
Average injected flit rate = 0.329828
Maximum injected flit rate = 0.3655 (at node 12)
Minimum accepted flit rate = 0.29 (at node 6)
Average accepted flit rate = 0.329852
Maximum accepted flit rate = 0.3695 (at node 57)
Average injected packet length = 1.99981
Average accepted packet length = 2.00014
Total in-flight flits = 886 (886 measured)
Class 1:
Minimum packet latency = 8
Average packet latency = 35.6647
Maximum packet latency = 81
Minimum network latency = 8
Average network latency = 35.637
Maximum network latency = 81
Slowest packet = 44876
Minimum flit latency = 7
Average flit latency = 34.7012
Maximum flit latency = 80
Slowest flit = 89752
Minimum fragmentation = 0
Average fragmentation = 0
Maximum fragmentation = 0
Minimum injected packet rate = 0.018 (at node 25)
Average injected packet rate = 0.0243203
Maximum injected packet rate = 0.0325 (at node 61)
Minimum accepted packet rate = 0.0155 (at node 33)
Average accepted packet rate = 0.0244141
Maximum accepted packet rate = 0.032 (at node 0)
Minimum injected flit rate = 0.036 (at node 25)
Average injected flit rate = 0.0486406
Maximum injected flit rate = 0.065 (at node 61)
Minimum accepted flit rate = 0.031 (at node 33)
Average accepted flit rate = 0.0488125
Maximum accepted flit rate = 0.064 (at node 0)
Average injected packet length = 2
Average accepted packet length = 1.99936
Total in-flight flits = 81 (81 measured)
latency change    = 0.0302494
throughput change = 0.00461855
latency change    = 0.0012611
throughput change = 0.00704225
1
Class 0:
Minimum packet latency = 8
Average packet latency = 49.2839
Maximum packet latency = 205
Minimum network latency = 8
Average network latency = 48.8808
Maximum network latency = 205
Slowest packet = 46169
Minimum flit latency = 5
Average flit latency = 47.0738
Maximum flit latency = 204
Slowest flit = 92339
Minimum fragmentation = 0
Average fragmentation = 1.80695
Maximum fragmentation = 31
Minimum injected packet rate = 0.148333 (at node 18)
Average injected packet rate = 0.164818
Maximum injected packet rate = 0.182 (at node 45)
Minimum accepted packet rate = 0.15 (at node 31)
Average accepted packet rate = 0.164344
Maximum accepted packet rate = 0.18 (at node 60)
Minimum injected flit rate = 0.296667 (at node 18)
Average injected flit rate = 0.329625
Maximum injected flit rate = 0.364 (at node 45)
Minimum accepted flit rate = 0.300333 (at node 31)
Average accepted flit rate = 0.328688
Maximum accepted flit rate = 0.360333 (at node 60)
Average injected packet length = 1.99994
Average accepted packet length = 2
Total in-flight flits = 1065 (1065 measured)
Class 1:
Minimum packet latency = 8
Average packet latency = 35.5552
Maximum packet latency = 81
Minimum network latency = 8
Average network latency = 35.5282
Maximum network latency = 81
Slowest packet = 44876
Minimum flit latency = 7
Average flit latency = 34.573
Maximum flit latency = 80
Slowest flit = 89752
Minimum fragmentation = 0
Average fragmentation = 0
Maximum fragmentation = 0
Minimum injected packet rate = 0.0203333 (at node 63)
Average injected packet rate = 0.0245625
Maximum injected packet rate = 0.031 (at node 4)
Minimum accepted packet rate = 0.0186667 (at node 23)
Average accepted packet rate = 0.0245625
Maximum accepted packet rate = 0.031 (at node 3)
Minimum injected flit rate = 0.0406667 (at node 63)
Average injected flit rate = 0.0491198
Maximum injected flit rate = 0.062 (at node 4)
Minimum accepted flit rate = 0.0373333 (at node 23)
Average accepted flit rate = 0.0491146
Maximum accepted flit rate = 0.062 (at node 3)
Average injected packet length = 1.99979
Average accepted packet length = 1.99958
Total in-flight flits = 105 (105 measured)
latency change    = 0.00610821
throughput change = 0.00354155
latency change    = 0.00307948
throughput change = 0.00615058
Draining all recorded packets ...
Draining remaining packets ...
Time taken is 6210 cycles
====== Traffic class 0 ======
Overall minimum packet latency = 8 (1 samples)
Overall average packet latency = 49.5606 (1 samples)
Overall maximum packet latency = 205 (1 samples)
Overall minimum network latency = 8 (1 samples)
Overall average network latency = 49.1586 (1 samples)
Overall maximum network latency = 205 (1 samples)
Overall minimum flit latency = 5 (1 samples)
Overall average flit latency = 47.3052 (1 samples)
Overall maximum flit latency = 204 (1 samples)
Overall minimum fragmentation = 0 (1 samples)
Overall average fragmentation = 1.80861 (1 samples)
Overall maximum fragmentation = 31 (1 samples)
Overall minimum injected packet rate = 0.148333 (1 samples)
Overall average injected packet rate = 0.164818 (1 samples)
Overall maximum injected packet rate = 0.182 (1 samples)
Overall minimum accepted packet rate = 0.15 (1 samples)
Overall average accepted packet rate = 0.164344 (1 samples)
Overall maximum accepted packet rate = 0.18 (1 samples)
Overall minimum injected flit rate = 0.296667 (1 samples)
Overall average injected flit rate = 0.329625 (1 samples)
Overall maximum injected flit rate = 0.364 (1 samples)
Overall minimum accepted flit rate = 0.300333 (1 samples)
Overall average accepted flit rate = 0.328688 (1 samples)
Overall maximum accepted flit rate = 0.360333 (1 samples)
Overall average injected packet size = 1.99994 (1 samples)
Overall average accepted packet size = 2 (1 samples)
Overall average hops = 6.24602 (1 samples)
====== Traffic class 1 ======
Overall minimum packet latency = 8 (1 samples)
Overall average packet latency = 35.6094 (1 samples)
Overall maximum packet latency = 82 (1 samples)
Overall minimum network latency = 8 (1 samples)
Overall average network latency = 35.5825 (1 samples)
Overall maximum network latency = 82 (1 samples)
Overall minimum flit latency = 7 (1 samples)
Overall average flit latency = 34.6271 (1 samples)
Overall maximum flit latency = 81 (1 samples)
Overall minimum fragmentation = 0 (1 samples)
Overall average fragmentation = 0 (1 samples)
Overall maximum fragmentation = 0 (1 samples)
Overall minimum injected packet rate = 0.0203333 (1 samples)
Overall average injected packet rate = 0.0245625 (1 samples)
Overall maximum injected packet rate = 0.031 (1 samples)
Overall minimum accepted packet rate = 0.0186667 (1 samples)
Overall average accepted packet rate = 0.0245625 (1 samples)
Overall maximum accepted packet rate = 0.031 (1 samples)
Overall minimum injected flit rate = 0.0406667 (1 samples)
Overall average injected flit rate = 0.0491198 (1 samples)
Overall maximum injected flit rate = 0.062 (1 samples)
Overall minimum accepted flit rate = 0.0373333 (1 samples)
Overall average accepted flit rate = 0.0491146 (1 samples)
Overall maximum accepted flit rate = 0.062 (1 samples)
Overall average injected packet size = 1.99979 (1 samples)
Overall average accepted packet size = 1.99958 (1 samples)
Overall average hops = 6.23643 (1 samples)
Total run time 31.1206
