BEGIN Configuration File: ./examples/project_inputs/config-iq_tp-transpose_c1ir-0.05_c0ir-0.19_prio-islip
//
// EVC Router Config File -         
//
// Jason Deng, Mike Wang        
//        

//
// Flow control
//

num_vcs     = 5;
vc_buf_size = 6;

wait_for_tail_credit = 0;

vc_allocator = islip;
sw_allocator = islip;
alloc_iters  = 2;

credit_delay   = 2;
routing_delay  = 1;
vc_alloc_delay = 1;
sw_alloc_delay = 1;
st_final_delay = 1;

input_speedup     = 1;
output_speedup    = 1;
internal_speedup  = 1.0;

//
// Traffic
//

sim_type = latency;

warmup_periods = 3;
sample_period  = 1000;
sim_count = 1;

//
//topoogy
//

topology = mesh;
k  = 8;
n  = 2;

//
// Routing
//

router = iq;
routing_function = dor;

packet_size = 2;
use_read_write = 0;

traffic  = transpose;
injection_rate = {0.19,0.05};
injection_rate_uses_flits = 1;

classes = 2;
class_priority = {0,0};
priority = class;

noq = 0;
hold_switch_for_packet = 0;
vc_prioritize_empty = 0;

//
// express virtual channel settings
//

evc = 1;
num_evcs = 1;
evc_prioritized_class = 1;
selective_vc_request = 1;
hold_switch_for_evc_packet = 1;
evc_next_route = 1;

END Configuration File: ./examples/project_inputs/config-iq_tp-transpose_c1ir-0.05_c0ir-0.19_prio-islip
0
Class 0:
Minimum packet latency = 8
Average packet latency = 73.9622
Maximum packet latency = 721
Minimum network latency = 8
Average network latency = 73.5605
Maximum network latency = 721
Slowest packet = 1786
Minimum flit latency = 6
Average flit latency = 72.1571
Maximum flit latency = 720
Slowest flit = 3572
Minimum fragmentation = 0
Average fragmentation = 0.79281
Maximum fragmentation = 11
Minimum injected packet rate = 0.044 (at node 7)
Average injected packet rate = 0.0857656
Maximum injected packet rate = 0.111 (at node 34)
Minimum accepted packet rate = 0.014 (at node 56)
Average accepted packet rate = 0.0751875
Maximum accepted packet rate = 0.105 (at node 1)
Minimum injected flit rate = 0.088 (at node 7)
Average injected flit rate = 0.171344
Maximum injected flit rate = 0.221 (at node 34)
Minimum accepted flit rate = 0.028 (at node 56)
Average accepted flit rate = 0.150438
Maximum accepted flit rate = 0.21 (at node 1)
Average injected packet length = 1.99781
Average accepted packet length = 2.00083
Total in-flight flits = 1374 (0 measured)
Class 1:
Minimum packet latency = 8
Average packet latency = 71.7738
Maximum packet latency = 653
Minimum network latency = 8
Average network latency = 71.6238
Maximum network latency = 653
Slowest packet = 2360
Minimum flit latency = 6
Average flit latency = 70.0122
Maximum flit latency = 652
Slowest flit = 4720
Minimum fragmentation = 0
Average fragmentation = 0.882711
Maximum fragmentation = 10
Minimum injected packet rate = 0.012 (at node 56)
Average injected packet rate = 0.0241875
Maximum injected packet rate = 0.037 (at node 44)
Minimum accepted packet rate = 0.003 (at node 7)
Average accepted packet rate = 0.0205156
Maximum accepted packet rate = 0.037 (at node 37)
Minimum injected flit rate = 0.024 (at node 56)
Average injected flit rate = 0.0483281
Maximum injected flit rate = 0.074 (at node 44)
Minimum accepted flit rate = 0.006 (at node 7)
Average accepted flit rate = 0.0410625
Maximum accepted flit rate = 0.074 (at node 37)
Average injected packet length = 1.99806
Average accepted packet length = 2.00152
Total in-flight flits = 490 (0 measured)
latency change    = 1
throughput change = 1
latency change    = 1
throughput change = 1
0
Class 0:
Minimum packet latency = 8
Average packet latency = 108.85
Maximum packet latency = 1614
Minimum network latency = 8
Average network latency = 99.0651
Maximum network latency = 1614
Slowest packet = 2821
Minimum flit latency = 6
Average flit latency = 97.5124
Maximum flit latency = 1613
Slowest flit = 5642
Minimum fragmentation = 0
Average fragmentation = 0.864152
Maximum fragmentation = 15
Minimum injected packet rate = 0.0265 (at node 57)
Average injected packet rate = 0.0815938
Maximum injected packet rate = 0.1075 (at node 11)
Minimum accepted packet rate = 0.0135 (at node 56)
Average accepted packet rate = 0.0764297
Maximum accepted packet rate = 0.1035 (at node 0)
Minimum injected flit rate = 0.053 (at node 57)
Average injected flit rate = 0.163055
Maximum injected flit rate = 0.215 (at node 11)
Minimum accepted flit rate = 0.027 (at node 56)
Average accepted flit rate = 0.15293
Maximum accepted flit rate = 0.207 (at node 0)
Average injected packet length = 1.99837
Average accepted packet length = 2.00092
Total in-flight flits = 1339 (0 measured)
Class 1:
Minimum packet latency = 8
Average packet latency = 116.112
Maximum packet latency = 1545
Minimum network latency = 8
Average network latency = 112.288
Maximum network latency = 1540
Slowest packet = 3167
Minimum flit latency = 6
Average flit latency = 110.579
Maximum flit latency = 1539
Slowest flit = 6334
Minimum fragmentation = 0
Average fragmentation = 0.877514
Maximum fragmentation = 14
Minimum injected packet rate = 0.01 (at node 56)
Average injected packet rate = 0.0237578
Maximum injected packet rate = 0.0345 (at node 44)
Minimum accepted packet rate = 0.0025 (at node 7)
Average accepted packet rate = 0.0213672
Maximum accepted packet rate = 0.034 (at node 37)
Minimum injected flit rate = 0.02 (at node 56)
Average injected flit rate = 0.0475156
Maximum injected flit rate = 0.069 (at node 44)
Minimum accepted flit rate = 0.005 (at node 7)
Average accepted flit rate = 0.0427422
Maximum accepted flit rate = 0.068 (at node 37)
Average injected packet length = 2
Average accepted packet length = 2.00037
Total in-flight flits = 637 (0 measured)
latency change    = 0.32051
throughput change = 0.0162963
latency change    = 0.381855
throughput change = 0.0392981
0
Class 0:
Minimum packet latency = 8
Average packet latency = 191.856
Maximum packet latency = 2476
Minimum network latency = 8
Average network latency = 127.063
Maximum network latency = 2473
Slowest packet = 3616
Minimum flit latency = 6
Average flit latency = 125.56
Maximum flit latency = 2472
Slowest flit = 7232
Minimum fragmentation = 0
Average fragmentation = 0.942577
Maximum fragmentation = 14
Minimum injected packet rate = 0.008 (at node 57)
Average injected packet rate = 0.0772344
Maximum injected packet rate = 0.122 (at node 62)
Minimum accepted packet rate = 0.008 (at node 15)
Average accepted packet rate = 0.0780938
Maximum accepted packet rate = 0.119 (at node 55)
Minimum injected flit rate = 0.016 (at node 57)
Average injected flit rate = 0.154641
Maximum injected flit rate = 0.244 (at node 62)
Minimum accepted flit rate = 0.016 (at node 15)
Average accepted flit rate = 0.156172
Maximum accepted flit rate = 0.239 (at node 55)
Average injected packet length = 2.00223
Average accepted packet length = 1.9998
Total in-flight flits = 1236 (0 measured)
Class 1:
Minimum packet latency = 8
Average packet latency = 237.411
Maximum packet latency = 2364
Minimum network latency = 8
Average network latency = 204.941
Maximum network latency = 2364
Slowest packet = 3588
Minimum flit latency = 7
Average flit latency = 202.496
Maximum flit latency = 2363
Slowest flit = 7176
Minimum fragmentation = 0
Average fragmentation = 0.959971
Maximum fragmentation = 15
Minimum injected packet rate = 0.008 (at node 56)
Average injected packet rate = 0.022625
Maximum injected packet rate = 0.034 (at node 63)
Minimum accepted packet rate = 0.003 (at node 7)
Average accepted packet rate = 0.0218594
Maximum accepted packet rate = 0.033 (at node 42)
Minimum injected flit rate = 0.016 (at node 56)
Average injected flit rate = 0.0451563
Maximum injected flit rate = 0.068 (at node 63)
Minimum accepted flit rate = 0.006 (at node 7)
Average accepted flit rate = 0.04375
Maximum accepted flit rate = 0.066 (at node 42)
Average injected packet length = 1.99586
Average accepted packet length = 2.00143
Total in-flight flits = 733 (0 measured)
latency change    = 0.43265
throughput change = 0.0207604
latency change    = 0.510926
throughput change = 0.0230357
Warmed up ...Time used is 3000 cycles
1
Class 0:
Minimum packet latency = 8
Average packet latency = 135.116
Maximum packet latency = 3182
Minimum network latency = 8
Average network latency = 73.4146
Maximum network latency = 917
Slowest packet = 19916
Minimum flit latency = 7
Average flit latency = 126.003
Maximum flit latency = 2631
Slowest flit = 10534
Minimum fragmentation = 0
Average fragmentation = 0.988764
Maximum fragmentation = 19
Minimum injected packet rate = 0.007 (at node 6)
Average injected packet rate = 0.0756719
Maximum injected packet rate = 0.108 (at node 16)
Minimum accepted packet rate = 0.009 (at node 15)
Average accepted packet rate = 0.0755625
Maximum accepted packet rate = 0.114 (at node 21)
Minimum injected flit rate = 0.014 (at node 6)
Average injected flit rate = 0.151359
Maximum injected flit rate = 0.215 (at node 16)
Minimum accepted flit rate = 0.017 (at node 56)
Average accepted flit rate = 0.15125
Maximum accepted flit rate = 0.228 (at node 21)
Average injected packet length = 2.00021
Average accepted packet length = 2.00165
Total in-flight flits = 1244 (1128 measured)
Class 1:
Minimum packet latency = 8
Average packet latency = 111.461
Maximum packet latency = 1662
Minimum network latency = 8
Average network latency = 100.721
Maximum network latency = 831
Slowest packet = 19931
Minimum flit latency = 7
Average flit latency = 235.243
Maximum flit latency = 2613
Slowest flit = 13266
Minimum fragmentation = 0
Average fragmentation = 1.06325
Maximum fragmentation = 13
Minimum injected packet rate = 0.007 (at node 6)
Average injected packet rate = 0.0225937
Maximum injected packet rate = 0.037 (at node 21)
Minimum accepted packet rate = 0.005 (at node 7)
Average accepted packet rate = 0.023125
Maximum accepted packet rate = 0.036 (at node 5)
Minimum injected flit rate = 0.014 (at node 6)
Average injected flit rate = 0.0452344
Maximum injected flit rate = 0.074 (at node 21)
Minimum accepted flit rate = 0.01 (at node 7)
Average accepted flit rate = 0.0462188
Maximum accepted flit rate = 0.072 (at node 5)
Average injected packet length = 2.00207
Average accepted packet length = 1.99865
Total in-flight flits = 667 (551 measured)
latency change    = 0.419931
throughput change = 0.0325413
latency change    = 1.13
throughput change = 0.0534145
Average latency for class 1 exceeded 500 cycles. Aborting simulation.
Too many sample periods needed to converge
Simulation unstable, ending ...
Total run time 3.62456
