BEGIN Configuration File: ./examples/project_inputs/config-iq_tp-transpose_c1ir-0.05_c0ir-0.21_prio-islip
//
// EVC Router Config File -         
//
// Jason Deng, Mike Wang        
//        

//
// Flow control
//

num_vcs     = 5;
vc_buf_size = 6;

wait_for_tail_credit = 0;

vc_allocator = islip;
sw_allocator = islip;
alloc_iters  = 2;

credit_delay   = 2;
routing_delay  = 1;
vc_alloc_delay = 1;
sw_alloc_delay = 1;
st_final_delay = 1;

input_speedup     = 1;
output_speedup    = 1;
internal_speedup  = 1.0;

//
// Traffic
//

sim_type = latency;

warmup_periods = 3;
sample_period  = 1000;
sim_count = 1;

//
//topoogy
//

topology = mesh;
k  = 8;
n  = 2;

//
// Routing
//

router = iq;
routing_function = dor;

packet_size = 2;
use_read_write = 0;

traffic  = transpose;
injection_rate = {0.21,0.05};
injection_rate_uses_flits = 1;

classes = 2;
class_priority = {0,0};
priority = class;

noq = 0;
hold_switch_for_packet = 0;
vc_prioritize_empty = 0;

//
// express virtual channel settings
//

evc = 1;
num_evcs = 1;
evc_prioritized_class = 1;
selective_vc_request = 1;
hold_switch_for_evc_packet = 1;
evc_next_route = 1;

END Configuration File: ./examples/project_inputs/config-iq_tp-transpose_c1ir-0.05_c0ir-0.21_prio-islip
0
Class 0:
Minimum packet latency = 8
Average packet latency = 76.849
Maximum packet latency = 845
Minimum network latency = 8
Average network latency = 76.3766
Maximum network latency = 845
Slowest packet = 1162
Minimum flit latency = 6
Average flit latency = 74.9514
Maximum flit latency = 844
Slowest flit = 2324
Minimum fragmentation = 0
Average fragmentation = 0.832268
Maximum fragmentation = 13
Minimum injected packet rate = 0.043 (at node 6)
Average injected packet rate = 0.09
Maximum injected packet rate = 0.12 (at node 27)
Minimum accepted packet rate = 0.014 (at node 56)
Average accepted packet rate = 0.07825
Maximum accepted packet rate = 0.12 (at node 27)
Minimum injected flit rate = 0.086 (at node 6)
Average injected flit rate = 0.179906
Maximum injected flit rate = 0.24 (at node 27)
Minimum accepted flit rate = 0.028 (at node 56)
Average accepted flit rate = 0.156719
Maximum accepted flit rate = 0.24 (at node 27)
Average injected packet length = 1.99896
Average accepted packet length = 2.0028
Total in-flight flits = 1522 (0 measured)
Class 1:
Minimum packet latency = 8
Average packet latency = 78.3062
Maximum packet latency = 729
Minimum network latency = 8
Average network latency = 78.0875
Maximum network latency = 729
Slowest packet = 1890
Minimum flit latency = 7
Average flit latency = 76.5665
Maximum flit latency = 728
Slowest flit = 3780
Minimum fragmentation = 0
Average fragmentation = 0.925339
Maximum fragmentation = 11
Minimum injected packet rate = 0.014 (at node 6)
Average injected packet rate = 0.0246094
Maximum injected packet rate = 0.039 (at node 25)
Minimum accepted packet rate = 0.004 (at node 15)
Average accepted packet rate = 0.0207188
Maximum accepted packet rate = 0.039 (at node 11)
Minimum injected flit rate = 0.027 (at node 57)
Average injected flit rate = 0.0491562
Maximum injected flit rate = 0.078 (at node 25)
Minimum accepted flit rate = 0.008 (at node 15)
Average accepted flit rate = 0.0414844
Maximum accepted flit rate = 0.078 (at node 11)
Average injected packet length = 1.99746
Average accepted packet length = 2.00226
Total in-flight flits = 517 (0 measured)
latency change    = 1
throughput change = 1
latency change    = 1
throughput change = 1
0
Class 0:
Minimum packet latency = 8
Average packet latency = 111.633
Maximum packet latency = 1705
Minimum network latency = 8
Average network latency = 101.861
Maximum network latency = 1705
Slowest packet = 2245
Minimum flit latency = 6
Average flit latency = 100.226
Maximum flit latency = 1704
Slowest flit = 4490
Minimum fragmentation = 0
Average fragmentation = 0.91577
Maximum fragmentation = 14
Minimum injected packet rate = 0.0245 (at node 6)
Average injected packet rate = 0.0846094
Maximum injected packet rate = 0.1235 (at node 44)
Minimum accepted packet rate = 0.0115 (at node 56)
Average accepted packet rate = 0.0791172
Maximum accepted packet rate = 0.1205 (at node 37)
Minimum injected flit rate = 0.049 (at node 6)
Average injected flit rate = 0.169125
Maximum injected flit rate = 0.247 (at node 44)
Minimum accepted flit rate = 0.023 (at node 56)
Average accepted flit rate = 0.158336
Maximum accepted flit rate = 0.241 (at node 37)
Average injected packet length = 1.99889
Average accepted packet length = 2.00128
Total in-flight flits = 1423 (0 measured)
Class 1:
Minimum packet latency = 8
Average packet latency = 121.947
Maximum packet latency = 1620
Minimum network latency = 8
Average network latency = 117.474
Maximum network latency = 1620
Slowest packet = 2432
Minimum flit latency = 7
Average flit latency = 115.6
Maximum flit latency = 1619
Slowest flit = 4864
Minimum fragmentation = 0
Average fragmentation = 0.95219
Maximum fragmentation = 11
Minimum injected packet rate = 0.01 (at node 6)
Average injected packet rate = 0.0241406
Maximum injected packet rate = 0.033 (at node 55)
Minimum accepted packet rate = 0.004 (at node 15)
Average accepted packet rate = 0.0214063
Maximum accepted packet rate = 0.0325 (at node 62)
Minimum injected flit rate = 0.02 (at node 6)
Average injected flit rate = 0.04825
Maximum injected flit rate = 0.066 (at node 55)
Minimum accepted flit rate = 0.008 (at node 15)
Average accepted flit rate = 0.0428359
Maximum accepted flit rate = 0.065 (at node 62)
Average injected packet length = 1.99871
Average accepted packet length = 2.00109
Total in-flight flits = 729 (0 measured)
latency change    = 0.311589
throughput change = 0.0102136
latency change    = 0.357869
throughput change = 0.0315521
0
Class 0:
Minimum packet latency = 8
Average packet latency = 213.551
Maximum packet latency = 2589
Minimum network latency = 8
Average network latency = 135.67
Maximum network latency = 2548
Slowest packet = 3000
Minimum flit latency = 6
Average flit latency = 133.813
Maximum flit latency = 2547
Slowest flit = 7044
Minimum fragmentation = 0
Average fragmentation = 1.08833
Maximum fragmentation = 15
Minimum injected packet rate = 0.007 (at node 6)
Average injected packet rate = 0.0804062
Maximum injected packet rate = 0.129 (at node 11)
Minimum accepted packet rate = 0.008 (at node 7)
Average accepted packet rate = 0.0804844
Maximum accepted packet rate = 0.124 (at node 44)
Minimum injected flit rate = 0.014 (at node 6)
Average injected flit rate = 0.160891
Maximum injected flit rate = 0.258 (at node 11)
Minimum accepted flit rate = 0.016 (at node 7)
Average accepted flit rate = 0.160859
Maximum accepted flit rate = 0.248 (at node 44)
Average injected packet length = 2.00097
Average accepted packet length = 1.99864
Total in-flight flits = 1430 (0 measured)
Class 1:
Minimum packet latency = 8
Average packet latency = 256.048
Maximum packet latency = 2606
Minimum network latency = 8
Average network latency = 223.159
Maximum network latency = 2606
Slowest packet = 3044
Minimum flit latency = 7
Average flit latency = 221.047
Maximum flit latency = 2605
Slowest flit = 6088
Minimum fragmentation = 0
Average fragmentation = 1.03179
Maximum fragmentation = 11
Minimum injected packet rate = 0.007 (at node 6)
Average injected packet rate = 0.0223125
Maximum injected packet rate = 0.034 (at node 17)
Minimum accepted packet rate = 0.003 (at node 7)
Average accepted packet rate = 0.021625
Maximum accepted packet rate = 0.035 (at node 10)
Minimum injected flit rate = 0.014 (at node 6)
Average injected flit rate = 0.0446094
Maximum injected flit rate = 0.068 (at node 17)
Minimum accepted flit rate = 0.006 (at node 7)
Average accepted flit rate = 0.0432656
Maximum accepted flit rate = 0.07 (at node 10)
Average injected packet length = 1.9993
Average accepted packet length = 2.00072
Total in-flight flits = 816 (0 measured)
latency change    = 0.477256
throughput change = 0.0156872
latency change    = 0.523732
throughput change = 0.00993138
Warmed up ...Time used is 3000 cycles
1
Class 0:
Minimum packet latency = 8
Average packet latency = 153.156
Maximum packet latency = 3186
Minimum network latency = 8
Average network latency = 81.1385
Maximum network latency = 909
Slowest packet = 20581
Minimum flit latency = 6
Average flit latency = 138.919
Maximum flit latency = 3117
Slowest flit = 7690
Minimum fragmentation = 0
Average fragmentation = 1.07439
Maximum fragmentation = 19
Minimum injected packet rate = 0.007 (at node 56)
Average injected packet rate = 0.0801562
Maximum injected packet rate = 0.121 (at node 36)
Minimum accepted packet rate = 0.007 (at node 15)
Average accepted packet rate = 0.0802812
Maximum accepted packet rate = 0.123 (at node 36)
Minimum injected flit rate = 0.014 (at node 56)
Average injected flit rate = 0.160297
Maximum injected flit rate = 0.241 (at node 36)
Minimum accepted flit rate = 0.014 (at node 15)
Average accepted flit rate = 0.160594
Maximum accepted flit rate = 0.245 (at node 36)
Average injected packet length = 1.99981
Average accepted packet length = 2.00039
Total in-flight flits = 1412 (1272 measured)
Class 1:
Minimum packet latency = 8
Average packet latency = 108.9
Maximum packet latency = 1556
Minimum network latency = 8
Average network latency = 99.7313
Maximum network latency = 863
Slowest packet = 20614
Minimum flit latency = 7
Average flit latency = 254.753
Maximum flit latency = 3261
Slowest flit = 7908
Minimum fragmentation = 0
Average fragmentation = 1.08899
Maximum fragmentation = 14
Minimum injected packet rate = 0.006 (at node 56)
Average injected packet rate = 0.0230781
Maximum injected packet rate = 0.038 (at node 37)
Minimum accepted packet rate = 0.006 (at node 15)
Average accepted packet rate = 0.0230469
Maximum accepted packet rate = 0.039 (at node 44)
Minimum injected flit rate = 0.012 (at node 56)
Average injected flit rate = 0.0462031
Maximum injected flit rate = 0.076 (at node 37)
Minimum accepted flit rate = 0.012 (at node 15)
Average accepted flit rate = 0.0460938
Maximum accepted flit rate = 0.078 (at node 44)
Average injected packet length = 2.00203
Average accepted packet length = 2
Total in-flight flits = 820 (680 measured)
latency change    = 0.394336
throughput change = 0.00165402
latency change    = 1.35121
throughput change = 0.0613559
Average latency for class 1 exceeded 500 cycles. Aborting simulation.
Too many sample periods needed to converge
Simulation unstable, ending ...
Total run time 3.75201
