BEGIN Configuration File: ./examples/project_inputs/config-iqevc_tp-bitcomp_c1ir-0.05_c0ir-0.19_prio-select
//
// EVC Router Config File -         
//
// Jason Deng, Mike Wang        
//        

//
// Flow control
//

num_vcs     = 5;
vc_buf_size = 6;

wait_for_tail_credit = 0;

vc_allocator = select;
sw_allocator = select;
alloc_iters  = 2;

credit_delay   = 2;
routing_delay  = 1;
vc_alloc_delay = 1;
sw_alloc_delay = 1;
st_final_delay = 1;

input_speedup     = 1;
output_speedup    = 1;
internal_speedup  = 1.0;

//
// Traffic
//

sim_type = latency;

warmup_periods = 3;
sample_period  = 1000;
sim_count = 1;

//
//topoogy
//

topology = mesh;
k  = 8;
n  = 2;

//
// Routing
//

router = iqevc;
routing_function = dor;

packet_size = 2;
use_read_write = 0;

traffic  = bitcomp;
injection_rate = {0.19,0.05};
injection_rate_uses_flits = 1;

classes = 2;
class_priority = {0,1};
priority = class;

noq = 0;
hold_switch_for_packet = 0;
vc_prioritize_empty = 0;

//
// express virtual channel settings
//

evc = 1;
num_evcs = 1;
evc_prioritized_class = 1;
selective_vc_request = 1;
hold_switch_for_evc_packet = 1;
evc_next_route = 0;

END Configuration File: ./examples/project_inputs/config-iqevc_tp-bitcomp_c1ir-0.05_c0ir-0.19_prio-select
0
Class 0:
Minimum packet latency = 18
Average packet latency = 81.4027
Maximum packet latency = 239
Minimum network latency = 18
Average network latency = 81.1665
Maximum network latency = 238
Slowest packet = 2552
Minimum flit latency = 17
Average flit latency = 79.1739
Maximum flit latency = 237
Slowest flit = 5105
Minimum fragmentation = 0
Average fragmentation = 1.97198
Maximum fragmentation = 56
Minimum injected packet rate = 0.074 (at node 9)
Average injected packet rate = 0.0938594
Maximum injected packet rate = 0.112 (at node 3)
Minimum accepted packet rate = 0.064 (at node 16)
Average accepted packet rate = 0.0842031
Maximum accepted packet rate = 0.101 (at node 60)
Minimum injected flit rate = 0.147 (at node 9)
Average injected flit rate = 0.187547
Maximum injected flit rate = 0.224 (at node 3)
Minimum accepted flit rate = 0.128 (at node 16)
Average accepted flit rate = 0.16875
Maximum accepted flit rate = 0.202 (at node 60)
Average injected packet length = 1.99817
Average accepted packet length = 2.00408
Total in-flight flits = 1214 (0 measured)
Class 1:
Minimum packet latency = 18
Average packet latency = 50.023
Maximum packet latency = 96
Minimum network latency = 18
Average network latency = 50.0053
Maximum network latency = 96
Slowest packet = 2984
Minimum flit latency = 17
Average flit latency = 49.0053
Maximum flit latency = 95
Slowest flit = 5968
Minimum fragmentation = 0
Average fragmentation = 0
Maximum fragmentation = 0
Minimum injected packet rate = 0.012 (at node 39)
Average injected packet rate = 0.0251094
Maximum injected packet rate = 0.038 (at node 38)
Minimum accepted packet rate = 0.01 (at node 24)
Average accepted packet rate = 0.0237344
Maximum accepted packet rate = 0.036 (at node 43)
Minimum injected flit rate = 0.024 (at node 39)
Average injected flit rate = 0.0501875
Maximum injected flit rate = 0.076 (at node 38)
Minimum accepted flit rate = 0.02 (at node 24)
Average accepted flit rate = 0.0475156
Maximum accepted flit rate = 0.072 (at node 43)
Average injected packet length = 1.99876
Average accepted packet length = 2.00197
Total in-flight flits = 173 (0 measured)
latency change    = 1
throughput change = 1
latency change    = 1
throughput change = 1
0
Class 0:
Minimum packet latency = 18
Average packet latency = 98.3676
Maximum packet latency = 654
Minimum network latency = 18
Average network latency = 98.1318
Maximum network latency = 654
Slowest packet = 9949
Minimum flit latency = 17
Average flit latency = 96.1274
Maximum flit latency = 653
Slowest flit = 19899
Minimum fragmentation = 0
Average fragmentation = 1.94693
Maximum fragmentation = 56
Minimum injected packet rate = 0.069 (at node 54)
Average injected packet rate = 0.0926719
Maximum injected packet rate = 0.106 (at node 14)
Minimum accepted packet rate = 0.0585 (at node 8)
Average accepted packet rate = 0.0870078
Maximum accepted packet rate = 0.1045 (at node 60)
Minimum injected flit rate = 0.138 (at node 54)
Average injected flit rate = 0.185273
Maximum injected flit rate = 0.212 (at node 14)
Minimum accepted flit rate = 0.117 (at node 8)
Average accepted flit rate = 0.174117
Maximum accepted flit rate = 0.209 (at node 60)
Average injected packet length = 1.99924
Average accepted packet length = 2.00117
Total in-flight flits = 1445 (0 measured)
Class 1:
Minimum packet latency = 18
Average packet latency = 51.9653
Maximum packet latency = 503
Minimum network latency = 18
Average network latency = 51.8352
Maximum network latency = 503
Slowest packet = 11332
Minimum flit latency = 17
Average flit latency = 50.8251
Maximum flit latency = 502
Slowest flit = 22664
Minimum fragmentation = 0
Average fragmentation = 0
Maximum fragmentation = 0
Minimum injected packet rate = 0.017 (at node 39)
Average injected packet rate = 0.0252422
Maximum injected packet rate = 0.0385 (at node 38)
Minimum accepted packet rate = 0.015 (at node 48)
Average accepted packet rate = 0.0243203
Maximum accepted packet rate = 0.037 (at node 25)
Minimum injected flit rate = 0.034 (at node 39)
Average injected flit rate = 0.0504844
Maximum injected flit rate = 0.077 (at node 38)
Minimum accepted flit rate = 0.03 (at node 48)
Average accepted flit rate = 0.0486484
Maximum accepted flit rate = 0.074 (at node 25)
Average injected packet length = 2
Average accepted packet length = 2.00032
Total in-flight flits = 237 (0 measured)
latency change    = 0.172465
throughput change = 0.0308251
latency change    = 0.0373762
throughput change = 0.0232857
0
Class 0:
Minimum packet latency = 19
Average packet latency = 131.932
Maximum packet latency = 1454
Minimum network latency = 19
Average network latency = 126.52
Maximum network latency = 1347
Slowest packet = 11479
Minimum flit latency = 17
Average flit latency = 124.617
Maximum flit latency = 1346
Slowest flit = 22958
Minimum fragmentation = 0
Average fragmentation = 1.92361
Maximum fragmentation = 38
Minimum injected packet rate = 0.031 (at node 55)
Average injected packet rate = 0.0916094
Maximum injected packet rate = 0.111 (at node 8)
Minimum accepted packet rate = 0.027 (at node 9)
Average accepted packet rate = 0.0906094
Maximum accepted packet rate = 0.11 (at node 26)
Minimum injected flit rate = 0.062 (at node 55)
Average injected flit rate = 0.183297
Maximum injected flit rate = 0.222 (at node 8)
Minimum accepted flit rate = 0.054 (at node 9)
Average accepted flit rate = 0.181266
Maximum accepted flit rate = 0.22 (at node 55)
Average injected packet length = 2.00085
Average accepted packet length = 2.00052
Total in-flight flits = 1568 (0 measured)
Class 1:
Minimum packet latency = 18
Average packet latency = 62.2164
Maximum packet latency = 672
Minimum network latency = 18
Average network latency = 60.517
Maximum network latency = 672
Slowest packet = 11666
Minimum flit latency = 17
Average flit latency = 59.4582
Maximum flit latency = 671
Slowest flit = 23332
Minimum fragmentation = 0
Average fragmentation = 0
Maximum fragmentation = 0
Minimum injected packet rate = 0.017 (at node 13)
Average injected packet rate = 0.0243594
Maximum injected packet rate = 0.033 (at node 12)
Minimum accepted packet rate = 0.016 (at node 42)
Average accepted packet rate = 0.0248438
Maximum accepted packet rate = 0.035 (at node 17)
Minimum injected flit rate = 0.034 (at node 13)
Average injected flit rate = 0.0486875
Maximum injected flit rate = 0.066 (at node 12)
Minimum accepted flit rate = 0.032 (at node 42)
Average accepted flit rate = 0.0496875
Maximum accepted flit rate = 0.07 (at node 17)
Average injected packet length = 1.99872
Average accepted packet length = 2
Total in-flight flits = 175 (0 measured)
latency change    = 0.254406
throughput change = 0.0394363
latency change    = 0.164764
throughput change = 0.0209119
Warmed up ...Time used is 3000 cycles
1
Class 0:
Minimum packet latency = 19
Average packet latency = 130.015
Maximum packet latency = 2113
Minimum network latency = 19
Average network latency = 116.611
Maximum network latency = 765
Slowest packet = 22803
Minimum flit latency = 17
Average flit latency = 131.693
Maximum flit latency = 1644
Slowest flit = 32365
Minimum fragmentation = 0
Average fragmentation = 1.92904
Maximum fragmentation = 45
Minimum injected packet rate = 0.036 (at node 54)
Average injected packet rate = 0.0915
Maximum injected packet rate = 0.111 (at node 16)
Minimum accepted packet rate = 0.03 (at node 8)
Average accepted packet rate = 0.0913906
Maximum accepted packet rate = 0.114 (at node 11)
Minimum injected flit rate = 0.072 (at node 54)
Average injected flit rate = 0.183016
Maximum injected flit rate = 0.222 (at node 16)
Minimum accepted flit rate = 0.06 (at node 8)
Average accepted flit rate = 0.182781
Maximum accepted flit rate = 0.229 (at node 11)
Average injected packet length = 2.00017
Average accepted packet length = 2
Total in-flight flits = 1590 (1586 measured)
Class 1:
Minimum packet latency = 18
Average packet latency = 59.271
Maximum packet latency = 593
Minimum network latency = 18
Average network latency = 57.9126
Maximum network latency = 593
Slowest packet = 23129
Minimum flit latency = 17
Average flit latency = 61.2091
Maximum flit latency = 900
Slowest flit = 40264
Minimum fragmentation = 0
Average fragmentation = 0
Maximum fragmentation = 0
Minimum injected packet rate = 0.014 (at node 60)
Average injected packet rate = 0.0248281
Maximum injected packet rate = 0.037 (at node 21)
Minimum accepted packet rate = 0.013 (at node 3)
Average accepted packet rate = 0.0244375
Maximum accepted packet rate = 0.036 (at node 42)
Minimum injected flit rate = 0.028 (at node 60)
Average injected flit rate = 0.049625
Maximum injected flit rate = 0.074 (at node 21)
Minimum accepted flit rate = 0.026 (at node 3)
Average accepted flit rate = 0.048875
Maximum accepted flit rate = 0.073 (at node 42)
Average injected packet length = 1.99874
Average accepted packet length = 2
Total in-flight flits = 227 (227 measured)
latency change    = 0.0147434
throughput change = 0.00829202
latency change    = 0.0496929
throughput change = 0.016624
1
Class 0:
Minimum packet latency = 19
Average packet latency = 159.581
Maximum packet latency = 2708
Minimum network latency = 19
Average network latency = 133.187
Maximum network latency = 1011
Slowest packet = 22803
Minimum flit latency = 17
Average flit latency = 138.996
Maximum flit latency = 1644
Slowest flit = 32365
Minimum fragmentation = 0
Average fragmentation = 1.92101
Maximum fragmentation = 45
Minimum injected packet rate = 0.036 (at node 55)
Average injected packet rate = 0.0899844
Maximum injected packet rate = 0.104 (at node 25)
Minimum accepted packet rate = 0.033 (at node 8)
Average accepted packet rate = 0.0888672
Maximum accepted packet rate = 0.1055 (at node 12)
Minimum injected flit rate = 0.072 (at node 55)
Average injected flit rate = 0.179961
Maximum injected flit rate = 0.2085 (at node 25)
Minimum accepted flit rate = 0.066 (at node 8)
Average accepted flit rate = 0.177711
Maximum accepted flit rate = 0.2105 (at node 12)
Average injected packet length = 1.99991
Average accepted packet length = 1.99974
Total in-flight flits = 1885 (1885 measured)
Class 1:
Minimum packet latency = 18
Average packet latency = 66.506
Maximum packet latency = 622
Minimum network latency = 18
Average network latency = 64.5713
Maximum network latency = 622
Slowest packet = 31539
Minimum flit latency = 17
Average flit latency = 65.4703
Maximum flit latency = 900
Slowest flit = 40264
Minimum fragmentation = 0
Average fragmentation = 0
Maximum fragmentation = 0
Minimum injected packet rate = 0.0175 (at node 47)
Average injected packet rate = 0.0246875
Maximum injected packet rate = 0.034 (at node 21)
Minimum accepted packet rate = 0.0155 (at node 16)
Average accepted packet rate = 0.024125
Maximum accepted packet rate = 0.0325 (at node 59)
Minimum injected flit rate = 0.0355 (at node 47)
Average injected flit rate = 0.0493594
Maximum injected flit rate = 0.068 (at node 21)
Minimum accepted flit rate = 0.031 (at node 16)
Average accepted flit rate = 0.0482578
Maximum accepted flit rate = 0.065 (at node 59)
Average injected packet length = 1.99937
Average accepted packet length = 2.00032
Total in-flight flits = 332 (332 measured)
latency change    = 0.185271
throughput change = 0.0285312
latency change    = 0.108787
throughput change = 0.0127894
1
Class 0:
Minimum packet latency = 18
Average packet latency = 187.797
Maximum packet latency = 3312
Minimum network latency = 18
Average network latency = 150.417
Maximum network latency = 1770
Slowest packet = 22803
Minimum flit latency = 17
Average flit latency = 152.842
Maximum flit latency = 1769
Slowest flit = 63149
Minimum fragmentation = 0
Average fragmentation = 1.92712
Maximum fragmentation = 45
Minimum injected packet rate = 0.0316667 (at node 55)
Average injected packet rate = 0.088776
Maximum injected packet rate = 0.107333 (at node 43)
Minimum accepted packet rate = 0.0306667 (at node 8)
Average accepted packet rate = 0.0874479
Maximum accepted packet rate = 0.106 (at node 5)
Minimum injected flit rate = 0.0633333 (at node 55)
Average injected flit rate = 0.177547
Maximum injected flit rate = 0.214667 (at node 43)
Minimum accepted flit rate = 0.0613333 (at node 8)
Average accepted flit rate = 0.17488
Maximum accepted flit rate = 0.212333 (at node 5)
Average injected packet length = 1.99994
Average accepted packet length = 1.99982
Total in-flight flits = 2107 (2107 measured)
Class 1:
Minimum packet latency = 18
Average packet latency = 76.3173
Maximum packet latency = 1274
Minimum network latency = 18
Average network latency = 72.08
Maximum network latency = 1274
Slowest packet = 32720
Minimum flit latency = 17
Average flit latency = 72.0786
Maximum flit latency = 1273
Slowest flit = 65440
Minimum fragmentation = 0
Average fragmentation = 0
Maximum fragmentation = 0
Minimum injected packet rate = 0.019 (at node 0)
Average injected packet rate = 0.0249531
Maximum injected packet rate = 0.0333333 (at node 21)
Minimum accepted packet rate = 0.019 (at node 0)
Average accepted packet rate = 0.0246198
Maximum accepted packet rate = 0.0326667 (at node 42)
Minimum injected flit rate = 0.038 (at node 0)
Average injected flit rate = 0.0498906
Maximum injected flit rate = 0.0666667 (at node 21)
Minimum accepted flit rate = 0.038 (at node 0)
Average accepted flit rate = 0.0492344
Maximum accepted flit rate = 0.0653333 (at node 42)
Average injected packet length = 1.99937
Average accepted packet length = 1.99979
Total in-flight flits = 312 (312 measured)
latency change    = 0.150248
throughput change = 0.0161867
latency change    = 0.128559
throughput change = 0.019835
1
Class 0:
Minimum packet latency = 18
Average packet latency = 210.648
Maximum packet latency = 4256
Minimum network latency = 18
Average network latency = 160.976
Maximum network latency = 2169
Slowest packet = 22803
Minimum flit latency = 17
Average flit latency = 161.964
Maximum flit latency = 2168
Slowest flit = 64774
Minimum fragmentation = 0
Average fragmentation = 1.91686
Maximum fragmentation = 57
Minimum injected packet rate = 0.0285 (at node 55)
Average injected packet rate = 0.0872891
Maximum injected packet rate = 0.10275 (at node 26)
Minimum accepted packet rate = 0.027 (at node 8)
Average accepted packet rate = 0.0863008
Maximum accepted packet rate = 0.103 (at node 37)
Minimum injected flit rate = 0.057 (at node 55)
Average injected flit rate = 0.174547
Maximum injected flit rate = 0.20525 (at node 26)
Minimum accepted flit rate = 0.05425 (at node 8)
Average accepted flit rate = 0.172602
Maximum accepted flit rate = 0.20575 (at node 37)
Average injected packet length = 1.99964
Average accepted packet length = 2
Total in-flight flits = 2094 (2094 measured)
Class 1:
Minimum packet latency = 18
Average packet latency = 83.7217
Maximum packet latency = 1411
Minimum network latency = 18
Average network latency = 77.9343
Maximum network latency = 1274
Slowest packet = 32720
Minimum flit latency = 17
Average flit latency = 77.4973
Maximum flit latency = 1273
Slowest flit = 65440
Minimum fragmentation = 0
Average fragmentation = 0
Maximum fragmentation = 0
Minimum injected packet rate = 0.01925 (at node 7)
Average injected packet rate = 0.0248633
Maximum injected packet rate = 0.03175 (at node 48)
Minimum accepted packet rate = 0.02 (at node 56)
Average accepted packet rate = 0.0247109
Maximum accepted packet rate = 0.0315 (at node 59)
Minimum injected flit rate = 0.0385 (at node 7)
Average injected flit rate = 0.0497344
Maximum injected flit rate = 0.0635 (at node 48)
Minimum accepted flit rate = 0.04 (at node 56)
Average accepted flit rate = 0.0494219
Maximum accepted flit rate = 0.063 (at node 59)
Average injected packet length = 2.00031
Average accepted packet length = 2
Total in-flight flits = 257 (257 measured)
latency change    = 0.108481
throughput change = 0.0132018
latency change    = 0.0884406
throughput change = 0.00379387
1
Class 0:
Minimum packet latency = 18
Average packet latency = 247.552
Maximum packet latency = 5123
Minimum network latency = 18
Average network latency = 169.197
Maximum network latency = 2355
Slowest packet = 22803
Minimum flit latency = 17
Average flit latency = 169.32
Maximum flit latency = 2354
Slowest flit = 81666
Minimum fragmentation = 0
Average fragmentation = 1.8909
Maximum fragmentation = 57
Minimum injected packet rate = 0.0268 (at node 55)
Average injected packet rate = 0.0869281
Maximum injected packet rate = 0.103 (at node 26)
Minimum accepted packet rate = 0.026 (at node 8)
Average accepted packet rate = 0.0858813
Maximum accepted packet rate = 0.1038 (at node 37)
Minimum injected flit rate = 0.0536 (at node 55)
Average injected flit rate = 0.17385
Maximum injected flit rate = 0.206 (at node 26)
Minimum accepted flit rate = 0.052 (at node 8)
Average accepted flit rate = 0.171766
Maximum accepted flit rate = 0.2072 (at node 37)
Average injected packet length = 1.99993
Average accepted packet length = 2.00004
Total in-flight flits = 2265 (2265 measured)
Class 1:
Minimum packet latency = 18
Average packet latency = 87.2408
Maximum packet latency = 1411
Minimum network latency = 18
Average network latency = 80.9716
Maximum network latency = 1274
Slowest packet = 32720
Minimum flit latency = 17
Average flit latency = 80.3304
Maximum flit latency = 1273
Slowest flit = 65440
Minimum fragmentation = 0
Average fragmentation = 0
Maximum fragmentation = 0
Minimum injected packet rate = 0.02 (at node 7)
Average injected packet rate = 0.024675
Maximum injected packet rate = 0.03 (at node 48)
Minimum accepted packet rate = 0.0204 (at node 56)
Average accepted packet rate = 0.0246125
Maximum accepted packet rate = 0.0298 (at node 59)
Minimum injected flit rate = 0.04 (at node 7)
Average injected flit rate = 0.0493562
Maximum injected flit rate = 0.06 (at node 48)
Minimum accepted flit rate = 0.0408 (at node 56)
Average accepted flit rate = 0.049225
Maximum accepted flit rate = 0.0596 (at node 59)
Average injected packet length = 2.00025
Average accepted packet length = 2
Total in-flight flits = 227 (227 measured)
latency change    = 0.149076
throughput change = 0.00486673
latency change    = 0.0403372
throughput change = 0.00399949
1
Class 0:
Minimum packet latency = 18
Average packet latency = 288.58
Maximum packet latency = 5744
Minimum network latency = 18
Average network latency = 172.819
Maximum network latency = 2355
Slowest packet = 22803
Minimum flit latency = 17
Average flit latency = 172.469
Maximum flit latency = 2354
Slowest flit = 81666
Minimum fragmentation = 0
Average fragmentation = 1.88664
Maximum fragmentation = 57
Minimum injected packet rate = 0.0285 (at node 55)
Average injected packet rate = 0.0868984
Maximum injected packet rate = 0.1045 (at node 43)
Minimum accepted packet rate = 0.0276667 (at node 8)
Average accepted packet rate = 0.0861667
Maximum accepted packet rate = 0.102 (at node 20)
Minimum injected flit rate = 0.057 (at node 55)
Average injected flit rate = 0.173781
Maximum injected flit rate = 0.209 (at node 43)
Minimum accepted flit rate = 0.0553333 (at node 8)
Average accepted flit rate = 0.172333
Maximum accepted flit rate = 0.204167 (at node 20)
Average injected packet length = 1.99982
Average accepted packet length = 2
Total in-flight flits = 2154 (2154 measured)
Class 1:
Minimum packet latency = 18
Average packet latency = 88.1088
Maximum packet latency = 1411
Minimum network latency = 18
Average network latency = 81.7629
Maximum network latency = 1274
Slowest packet = 32720
Minimum flit latency = 17
Average flit latency = 80.9941
Maximum flit latency = 1273
Slowest flit = 65440
Minimum fragmentation = 0
Average fragmentation = 0
Maximum fragmentation = 0
Minimum injected packet rate = 0.0205 (at node 7)
Average injected packet rate = 0.0247109
Maximum injected packet rate = 0.0295 (at node 48)
Minimum accepted packet rate = 0.0206667 (at node 5)
Average accepted packet rate = 0.0245286
Maximum accepted packet rate = 0.0295 (at node 59)
Minimum injected flit rate = 0.041 (at node 7)
Average injected flit rate = 0.0494193
Maximum injected flit rate = 0.059 (at node 48)
Minimum accepted flit rate = 0.0413333 (at node 5)
Average accepted flit rate = 0.0490547
Maximum accepted flit rate = 0.059 (at node 59)
Average injected packet length = 1.99989
Average accepted packet length = 1.99989
Total in-flight flits = 324 (324 measured)
latency change    = 0.142172
throughput change = 0.00329425
latency change    = 0.00985171
throughput change = 0.00347189
1
Class 0:
Minimum packet latency = 18
Average packet latency = 325.605
Maximum packet latency = 6398
Minimum network latency = 18
Average network latency = 176.167
Maximum network latency = 2355
Slowest packet = 22803
Minimum flit latency = 17
Average flit latency = 175.475
Maximum flit latency = 2354
Slowest flit = 81666
Minimum fragmentation = 0
Average fragmentation = 1.90624
Maximum fragmentation = 63
Minimum injected packet rate = 0.0314286 (at node 55)
Average injected packet rate = 0.086971
Maximum injected packet rate = 0.102 (at node 43)
Minimum accepted packet rate = 0.0298571 (at node 8)
Average accepted packet rate = 0.0861875
Maximum accepted packet rate = 0.103857 (at node 3)
Minimum injected flit rate = 0.0628571 (at node 55)
Average injected flit rate = 0.173935
Maximum injected flit rate = 0.204 (at node 43)
Minimum accepted flit rate = 0.0597143 (at node 8)
Average accepted flit rate = 0.172355
Maximum accepted flit rate = 0.207714 (at node 3)
Average injected packet length = 1.99992
Average accepted packet length = 1.99977
Total in-flight flits = 2301 (2301 measured)
Class 1:
Minimum packet latency = 18
Average packet latency = 89.8555
Maximum packet latency = 1411
Minimum network latency = 18
Average network latency = 83.0368
Maximum network latency = 1274
Slowest packet = 32720
Minimum flit latency = 17
Average flit latency = 82.1771
Maximum flit latency = 1273
Slowest flit = 65440
Minimum fragmentation = 0
Average fragmentation = 0
Maximum fragmentation = 0
Minimum injected packet rate = 0.0205714 (at node 7)
Average injected packet rate = 0.0247321
Maximum injected packet rate = 0.0294286 (at node 48)
Minimum accepted packet rate = 0.0204286 (at node 38)
Average accepted packet rate = 0.0246406
Maximum accepted packet rate = 0.0287143 (at node 15)
Minimum injected flit rate = 0.0411429 (at node 7)
Average injected flit rate = 0.0494665
Maximum injected flit rate = 0.0588571 (at node 48)
Minimum accepted flit rate = 0.0408571 (at node 38)
Average accepted flit rate = 0.0492812
Maximum accepted flit rate = 0.0574286 (at node 15)
Average injected packet length = 2.00009
Average accepted packet length = 2
Total in-flight flits = 263 (263 measured)
latency change    = 0.113711
throughput change = 0.000125192
latency change    = 0.0194397
throughput change = 0.00459734
Draining all recorded packets ...
Class 0:
Remaining flits: 146706 146707 146798 146799 146826 146827 147080 147081 147144 147145 [...] (2260 flits)
Measured flits: 146706 146707 146798 146799 146826 146827 147080 147081 147144 147145 [...] (1057 flits)
Class 1:
Remaining flits: 154502 154503 155240 155241 155292 155293 155362 155363 155442 155443 [...] (366 flits)
Measured flits: (0 flits)
Average latency for class 0 exceeded 500 cycles. Aborting simulation.
Simulation unstable, ending ...
Total run time 16.9264
