BEGIN Configuration File: ./examples/project_inputs/config-iqevc_tp-bitcomp_c1ir-0.05_c0ir-0.17_prio-select
//
// EVC Router Config File -         
//
// Jason Deng, Mike Wang        
//        

//
// Flow control
//

num_vcs     = 5;
vc_buf_size = 6;

wait_for_tail_credit = 0;

vc_allocator = select;
sw_allocator = select;
alloc_iters  = 2;

credit_delay   = 2;
routing_delay  = 1;
vc_alloc_delay = 1;
sw_alloc_delay = 1;
st_final_delay = 1;

input_speedup     = 1;
output_speedup    = 1;
internal_speedup  = 1.0;

//
// Traffic
//

sim_type = latency;

warmup_periods = 3;
sample_period  = 1000;
sim_count = 1;

//
//topoogy
//

topology = mesh;
k  = 8;
n  = 2;

//
// Routing
//

router = iqevc;
routing_function = dor;

packet_size = 2;
use_read_write = 0;

traffic  = bitcomp;
injection_rate = {0.17,0.05};
injection_rate_uses_flits = 1;

classes = 2;
class_priority = {0,1};
priority = class;

noq = 0;
hold_switch_for_packet = 0;
vc_prioritize_empty = 0;

//
// express virtual channel settings
//

evc = 1;
num_evcs = 1;
evc_prioritized_class = 1;
selective_vc_request = 1;
hold_switch_for_evc_packet = 1;
evc_next_route = 0;

END Configuration File: ./examples/project_inputs/config-iqevc_tp-bitcomp_c1ir-0.05_c0ir-0.17_prio-select
0
Class 0:
Minimum packet latency = 18
Average packet latency = 67.2495
Maximum packet latency = 245
Minimum network latency = 18
Average network latency = 67.0399
Maximum network latency = 245
Slowest packet = 5043
Minimum flit latency = 17
Average flit latency = 65.1663
Maximum flit latency = 242
Slowest flit = 10086
Minimum fragmentation = 0
Average fragmentation = 1.73974
Maximum fragmentation = 33
Minimum injected packet rate = 0.066 (at node 45)
Average injected packet rate = 0.0851563
Maximum injected packet rate = 0.109 (at node 61)
Minimum accepted packet rate = 0.063 (at node 18)
Average accepted packet rate = 0.0784062
Maximum accepted packet rate = 0.098 (at node 2)
Minimum injected flit rate = 0.132 (at node 45)
Average injected flit rate = 0.170234
Maximum injected flit rate = 0.218 (at node 61)
Minimum accepted flit rate = 0.126 (at node 18)
Average accepted flit rate = 0.157125
Maximum accepted flit rate = 0.196 (at node 2)
Average injected packet length = 1.99908
Average accepted packet length = 2.00399
Total in-flight flits = 844 (0 measured)
Class 1:
Minimum packet latency = 18
Average packet latency = 49.8933
Maximum packet latency = 92
Minimum network latency = 18
Average network latency = 49.8698
Maximum network latency = 92
Slowest packet = 4116
Minimum flit latency = 17
Average flit latency = 48.8643
Maximum flit latency = 91
Slowest flit = 8232
Minimum fragmentation = 0
Average fragmentation = 0
Maximum fragmentation = 0
Minimum injected packet rate = 0.014 (at node 17)
Average injected packet rate = 0.0250781
Maximum injected packet rate = 0.038 (at node 30)
Minimum accepted packet rate = 0.014 (at node 22)
Average accepted packet rate = 0.023875
Maximum accepted packet rate = 0.038 (at node 33)
Minimum injected flit rate = 0.028 (at node 17)
Average injected flit rate = 0.0501406
Maximum injected flit rate = 0.076 (at node 30)
Minimum accepted flit rate = 0.028 (at node 22)
Average accepted flit rate = 0.0477969
Maximum accepted flit rate = 0.076 (at node 33)
Average injected packet length = 1.99938
Average accepted packet length = 2.00196
Total in-flight flits = 151 (0 measured)
latency change    = 1
throughput change = 1
latency change    = 1
throughput change = 1
0
Class 0:
Minimum packet latency = 18
Average packet latency = 68.1655
Maximum packet latency = 245
Minimum network latency = 18
Average network latency = 67.964
Maximum network latency = 245
Slowest packet = 5043
Minimum flit latency = 17
Average flit latency = 66.0744
Maximum flit latency = 242
Slowest flit = 10086
Minimum fragmentation = 0
Average fragmentation = 1.72604
Maximum fragmentation = 42
Minimum injected packet rate = 0.0705 (at node 52)
Average injected packet rate = 0.0848047
Maximum injected packet rate = 0.1035 (at node 28)
Minimum accepted packet rate = 0.0695 (at node 11)
Average accepted packet rate = 0.0819297
Maximum accepted packet rate = 0.0995 (at node 35)
Minimum injected flit rate = 0.141 (at node 52)
Average injected flit rate = 0.16957
Maximum injected flit rate = 0.207 (at node 28)
Minimum accepted flit rate = 0.139 (at node 11)
Average accepted flit rate = 0.163984
Maximum accepted flit rate = 0.1995 (at node 35)
Average injected packet length = 1.99954
Average accepted packet length = 2.00153
Total in-flight flits = 722 (0 measured)
Class 1:
Minimum packet latency = 18
Average packet latency = 50.2953
Maximum packet latency = 94
Minimum network latency = 18
Average network latency = 50.2731
Maximum network latency = 94
Slowest packet = 11914
Minimum flit latency = 17
Average flit latency = 49.2756
Maximum flit latency = 93
Slowest flit = 23828
Minimum fragmentation = 0
Average fragmentation = 0
Maximum fragmentation = 0
Minimum injected packet rate = 0.0155 (at node 62)
Average injected packet rate = 0.0246016
Maximum injected packet rate = 0.031 (at node 39)
Minimum accepted packet rate = 0.015 (at node 1)
Average accepted packet rate = 0.0239688
Maximum accepted packet rate = 0.031 (at node 4)
Minimum injected flit rate = 0.031 (at node 62)
Average injected flit rate = 0.0491953
Maximum injected flit rate = 0.062 (at node 39)
Minimum accepted flit rate = 0.03 (at node 1)
Average accepted flit rate = 0.0479687
Maximum accepted flit rate = 0.062 (at node 4)
Average injected packet length = 1.99968
Average accepted packet length = 2.0013
Total in-flight flits = 158 (0 measured)
latency change    = 0.0134384
throughput change = 0.0418294
latency change    = 0.00799243
throughput change = 0.00358306
0
Class 0:
Minimum packet latency = 18
Average packet latency = 67.8306
Maximum packet latency = 175
Minimum network latency = 18
Average network latency = 67.6361
Maximum network latency = 175
Slowest packet = 15719
Minimum flit latency = 17
Average flit latency = 65.7238
Maximum flit latency = 174
Slowest flit = 31439
Minimum fragmentation = 0
Average fragmentation = 1.80806
Maximum fragmentation = 44
Minimum injected packet rate = 0.067 (at node 31)
Average injected packet rate = 0.0852969
Maximum injected packet rate = 0.109 (at node 24)
Minimum accepted packet rate = 0.067 (at node 3)
Average accepted packet rate = 0.0853125
Maximum accepted packet rate = 0.104 (at node 51)
Minimum injected flit rate = 0.134 (at node 31)
Average injected flit rate = 0.170594
Maximum injected flit rate = 0.218 (at node 24)
Minimum accepted flit rate = 0.134 (at node 3)
Average accepted flit rate = 0.170766
Maximum accepted flit rate = 0.208 (at node 51)
Average injected packet length = 2
Average accepted packet length = 2.00165
Total in-flight flits = 709 (0 measured)
Class 1:
Minimum packet latency = 18
Average packet latency = 50.2678
Maximum packet latency = 91
Minimum network latency = 18
Average network latency = 50.243
Maximum network latency = 91
Slowest packet = 13483
Minimum flit latency = 17
Average flit latency = 49.2472
Maximum flit latency = 90
Slowest flit = 26966
Minimum fragmentation = 0
Average fragmentation = 0
Maximum fragmentation = 0
Minimum injected packet rate = 0.016 (at node 50)
Average injected packet rate = 0.0245625
Maximum injected packet rate = 0.038 (at node 24)
Minimum accepted packet rate = 0.015 (at node 2)
Average accepted packet rate = 0.024625
Maximum accepted packet rate = 0.037 (at node 39)
Minimum injected flit rate = 0.032 (at node 50)
Average injected flit rate = 0.0491406
Maximum injected flit rate = 0.076 (at node 24)
Minimum accepted flit rate = 0.03 (at node 2)
Average accepted flit rate = 0.0492344
Maximum accepted flit rate = 0.074 (at node 39)
Average injected packet length = 2.00064
Average accepted packet length = 1.99937
Total in-flight flits = 151 (0 measured)
latency change    = 0.00493807
throughput change = 0.0397109
latency change    = 0.000547864
throughput change = 0.0257061
Warmed up ...Time used is 3000 cycles
1
Class 0:
Minimum packet latency = 18
Average packet latency = 64.1739
Maximum packet latency = 187
Minimum network latency = 18
Average network latency = 63.9407
Maximum network latency = 185
Slowest packet = 24727
Minimum flit latency = 17
Average flit latency = 62.6462
Maximum flit latency = 184
Slowest flit = 49454
Minimum fragmentation = 0
Average fragmentation = 1.81109
Maximum fragmentation = 41
Minimum injected packet rate = 0.064 (at node 10)
Average injected packet rate = 0.0830313
Maximum injected packet rate = 0.109 (at node 42)
Minimum accepted packet rate = 0.064 (at node 62)
Average accepted packet rate = 0.0826563
Maximum accepted packet rate = 0.107 (at node 21)
Minimum injected flit rate = 0.128 (at node 10)
Average injected flit rate = 0.166047
Maximum injected flit rate = 0.218 (at node 42)
Minimum accepted flit rate = 0.128 (at node 62)
Average accepted flit rate = 0.165078
Maximum accepted flit rate = 0.214 (at node 21)
Average injected packet length = 1.99981
Average accepted packet length = 1.99716
Total in-flight flits = 772 (772 measured)
Class 1:
Minimum packet latency = 18
Average packet latency = 50.5372
Maximum packet latency = 95
Minimum network latency = 18
Average network latency = 50.5115
Maximum network latency = 94
Slowest packet = 24324
Minimum flit latency = 17
Average flit latency = 49.7314
Maximum flit latency = 93
Slowest flit = 48648
Minimum fragmentation = 0
Average fragmentation = 0
Maximum fragmentation = 0
Minimum injected packet rate = 0.016 (at node 35)
Average injected packet rate = 0.0258281
Maximum injected packet rate = 0.038 (at node 39)
Minimum accepted packet rate = 0.015 (at node 8)
Average accepted packet rate = 0.0255781
Maximum accepted packet rate = 0.036 (at node 24)
Minimum injected flit rate = 0.032 (at node 35)
Average injected flit rate = 0.0515938
Maximum injected flit rate = 0.076 (at node 39)
Minimum accepted flit rate = 0.03 (at node 8)
Average accepted flit rate = 0.051125
Maximum accepted flit rate = 0.072 (at node 24)
Average injected packet length = 1.99758
Average accepted packet length = 1.99878
Total in-flight flits = 185 (185 measured)
latency change    = 0.0569813
throughput change = 0.0344534
latency change    = 0.00533099
throughput change = 0.0369804
1
Class 0:
Minimum packet latency = 18
Average packet latency = 68.1592
Maximum packet latency = 275
Minimum network latency = 18
Average network latency = 67.9297
Maximum network latency = 275
Slowest packet = 27918
Minimum flit latency = 17
Average flit latency = 66.1637
Maximum flit latency = 274
Slowest flit = 55837
Minimum fragmentation = 0
Average fragmentation = 1.83617
Maximum fragmentation = 47
Minimum injected packet rate = 0.0715 (at node 9)
Average injected packet rate = 0.0846094
Maximum injected packet rate = 0.099 (at node 6)
Minimum accepted packet rate = 0.072 (at node 62)
Average accepted packet rate = 0.0845078
Maximum accepted packet rate = 0.0995 (at node 57)
Minimum injected flit rate = 0.143 (at node 9)
Average injected flit rate = 0.169227
Maximum injected flit rate = 0.198 (at node 6)
Minimum accepted flit rate = 0.144 (at node 62)
Average accepted flit rate = 0.168914
Maximum accepted flit rate = 0.1985 (at node 57)
Average injected packet length = 2.00009
Average accepted packet length = 1.9988
Total in-flight flits = 750 (750 measured)
Class 1:
Minimum packet latency = 18
Average packet latency = 50.4015
Maximum packet latency = 95
Minimum network latency = 18
Average network latency = 50.3771
Maximum network latency = 94
Slowest packet = 24324
Minimum flit latency = 17
Average flit latency = 49.4925
Maximum flit latency = 93
Slowest flit = 48648
Minimum fragmentation = 0
Average fragmentation = 0
Maximum fragmentation = 0
Minimum injected packet rate = 0.0165 (at node 25)
Average injected packet rate = 0.0252813
Maximum injected packet rate = 0.0345 (at node 39)
Minimum accepted packet rate = 0.017 (at node 38)
Average accepted packet rate = 0.0252734
Maximum accepted packet rate = 0.0335 (at node 24)
Minimum injected flit rate = 0.033 (at node 25)
Average injected flit rate = 0.0505469
Maximum injected flit rate = 0.069 (at node 39)
Minimum accepted flit rate = 0.034 (at node 38)
Average accepted flit rate = 0.0505234
Maximum accepted flit rate = 0.067 (at node 24)
Average injected packet length = 1.99938
Average accepted packet length = 1.99907
Total in-flight flits = 156 (156 measured)
latency change    = 0.0584713
throughput change = 0.0227094
latency change    = 0.00269158
throughput change = 0.0119066
1
Class 0:
Minimum packet latency = 18
Average packet latency = 68.1612
Maximum packet latency = 275
Minimum network latency = 18
Average network latency = 67.9382
Maximum network latency = 275
Slowest packet = 27918
Minimum flit latency = 17
Average flit latency = 66.1211
Maximum flit latency = 274
Slowest flit = 55837
Minimum fragmentation = 0
Average fragmentation = 1.82035
Maximum fragmentation = 47
Minimum injected packet rate = 0.075 (at node 1)
Average injected packet rate = 0.0853073
Maximum injected packet rate = 0.0973333 (at node 54)
Minimum accepted packet rate = 0.074 (at node 62)
Average accepted packet rate = 0.0850573
Maximum accepted packet rate = 0.097 (at node 22)
Minimum injected flit rate = 0.149667 (at node 1)
Average injected flit rate = 0.170609
Maximum injected flit rate = 0.194667 (at node 54)
Minimum accepted flit rate = 0.148 (at node 62)
Average accepted flit rate = 0.170047
Maximum accepted flit rate = 0.194333 (at node 22)
Average injected packet length = 1.99994
Average accepted packet length = 1.9992
Total in-flight flits = 818 (818 measured)
Class 1:
Minimum packet latency = 18
Average packet latency = 50.2571
Maximum packet latency = 95
Minimum network latency = 18
Average network latency = 50.2322
Maximum network latency = 94
Slowest packet = 24324
Minimum flit latency = 17
Average flit latency = 49.3119
Maximum flit latency = 93
Slowest flit = 48648
Minimum fragmentation = 0
Average fragmentation = 0
Maximum fragmentation = 0
Minimum injected packet rate = 0.0166667 (at node 25)
Average injected packet rate = 0.0252135
Maximum injected packet rate = 0.031 (at node 22)
Minimum accepted packet rate = 0.017 (at node 38)
Average accepted packet rate = 0.0251146
Maximum accepted packet rate = 0.0313333 (at node 24)
Minimum injected flit rate = 0.0333333 (at node 25)
Average injected flit rate = 0.0504219
Maximum injected flit rate = 0.062 (at node 22)
Minimum accepted flit rate = 0.034 (at node 38)
Average accepted flit rate = 0.0502135
Maximum accepted flit rate = 0.0626667 (at node 24)
Average injected packet length = 1.99979
Average accepted packet length = 1.99938
Total in-flight flits = 192 (192 measured)
latency change    = 2.84721e-05
throughput change = 0.00666177
latency change    = 0.00287337
throughput change = 0.00617156
1
Class 0:
Minimum packet latency = 18
Average packet latency = 68.1363
Maximum packet latency = 275
Minimum network latency = 18
Average network latency = 67.9174
Maximum network latency = 275
Slowest packet = 27918
Minimum flit latency = 17
Average flit latency = 66.0812
Maximum flit latency = 274
Slowest flit = 55837
Minimum fragmentation = 0
Average fragmentation = 1.80365
Maximum fragmentation = 47
Minimum injected packet rate = 0.07725 (at node 25)
Average injected packet rate = 0.0853359
Maximum injected packet rate = 0.09875 (at node 54)
Minimum accepted packet rate = 0.077 (at node 6)
Average accepted packet rate = 0.0851289
Maximum accepted packet rate = 0.09575 (at node 9)
Minimum injected flit rate = 0.1545 (at node 25)
Average injected flit rate = 0.170672
Maximum injected flit rate = 0.1975 (at node 54)
Minimum accepted flit rate = 0.154 (at node 6)
Average accepted flit rate = 0.170219
Maximum accepted flit rate = 0.19175 (at node 9)
Average injected packet length = 2
Average accepted packet length = 1.99954
Total in-flight flits = 825 (825 measured)
Class 1:
Minimum packet latency = 18
Average packet latency = 50.3581
Maximum packet latency = 97
Minimum network latency = 18
Average network latency = 50.3326
Maximum network latency = 96
Slowest packet = 44704
Minimum flit latency = 17
Average flit latency = 49.3936
Maximum flit latency = 95
Slowest flit = 89408
Minimum fragmentation = 0
Average fragmentation = 0
Maximum fragmentation = 0
Minimum injected packet rate = 0.018 (at node 25)
Average injected packet rate = 0.0250859
Maximum injected packet rate = 0.03175 (at node 29)
Minimum accepted packet rate = 0.01775 (at node 38)
Average accepted packet rate = 0.0250547
Maximum accepted packet rate = 0.0315 (at node 34)
Minimum injected flit rate = 0.036 (at node 25)
Average injected flit rate = 0.0501641
Maximum injected flit rate = 0.0635 (at node 29)
Minimum accepted flit rate = 0.0355 (at node 38)
Average accepted flit rate = 0.0501055
Maximum accepted flit rate = 0.063 (at node 34)
Average injected packet length = 1.99969
Average accepted packet length = 1.99984
Total in-flight flits = 168 (168 measured)
latency change    = 0.000365328
throughput change = 0.00100973
latency change    = 0.00200451
throughput change = 0.00215691
1
Class 0:
Minimum packet latency = 18
Average packet latency = 68.2506
Maximum packet latency = 275
Minimum network latency = 18
Average network latency = 68.0301
Maximum network latency = 275
Slowest packet = 27918
Minimum flit latency = 17
Average flit latency = 66.1752
Maximum flit latency = 274
Slowest flit = 55837
Minimum fragmentation = 0
Average fragmentation = 1.80134
Maximum fragmentation = 47
Minimum injected packet rate = 0.0778 (at node 40)
Average injected packet rate = 0.0853594
Maximum injected packet rate = 0.0968 (at node 54)
Minimum accepted packet rate = 0.078 (at node 13)
Average accepted packet rate = 0.0853187
Maximum accepted packet rate = 0.0958 (at node 9)
Minimum injected flit rate = 0.1556 (at node 40)
Average injected flit rate = 0.170722
Maximum injected flit rate = 0.1936 (at node 54)
Minimum accepted flit rate = 0.156 (at node 13)
Average accepted flit rate = 0.170594
Maximum accepted flit rate = 0.1916 (at node 9)
Average injected packet length = 2.00004
Average accepted packet length = 1.99949
Total in-flight flits = 749 (749 measured)
Class 1:
Minimum packet latency = 18
Average packet latency = 50.4266
Maximum packet latency = 97
Minimum network latency = 18
Average network latency = 50.4
Maximum network latency = 96
Slowest packet = 44704
Minimum flit latency = 17
Average flit latency = 49.4481
Maximum flit latency = 95
Slowest flit = 89408
Minimum fragmentation = 0
Average fragmentation = 0
Maximum fragmentation = 0
Minimum injected packet rate = 0.0192 (at node 25)
Average injected packet rate = 0.0250844
Maximum injected packet rate = 0.0288 (at node 26)
Minimum accepted packet rate = 0.0192 (at node 38)
Average accepted packet rate = 0.0250156
Maximum accepted packet rate = 0.0292 (at node 37)
Minimum injected flit rate = 0.0384 (at node 25)
Average injected flit rate = 0.0501687
Maximum injected flit rate = 0.0576 (at node 26)
Minimum accepted flit rate = 0.0384 (at node 38)
Average accepted flit rate = 0.050025
Maximum accepted flit rate = 0.0584 (at node 37)
Average injected packet length = 2
Average accepted packet length = 1.99975
Total in-flight flits = 197 (197 measured)
latency change    = 0.00167446
throughput change = 0.0021982
latency change    = 0.00135907
throughput change = 0.00160857
Draining all recorded packets ...
Draining remaining packets ...
Time taken is 8287 cycles
====== Traffic class 0 ======
Overall minimum packet latency = 18 (1 samples)
Overall average packet latency = 68.5218 (1 samples)
Overall maximum packet latency = 275 (1 samples)
Overall minimum network latency = 18 (1 samples)
Overall average network latency = 68.3008 (1 samples)
Overall maximum network latency = 275 (1 samples)
Overall minimum flit latency = 17 (1 samples)
Overall average flit latency = 66.3176 (1 samples)
Overall maximum flit latency = 274 (1 samples)
Overall minimum fragmentation = 0 (1 samples)
Overall average fragmentation = 1.80754 (1 samples)
Overall maximum fragmentation = 47 (1 samples)
Overall minimum injected packet rate = 0.0778 (1 samples)
Overall average injected packet rate = 0.0853594 (1 samples)
Overall maximum injected packet rate = 0.0968 (1 samples)
Overall minimum accepted packet rate = 0.078 (1 samples)
Overall average accepted packet rate = 0.0853187 (1 samples)
Overall maximum accepted packet rate = 0.0958 (1 samples)
Overall minimum injected flit rate = 0.1556 (1 samples)
Overall average injected flit rate = 0.170722 (1 samples)
Overall maximum injected flit rate = 0.1936 (1 samples)
Overall minimum accepted flit rate = 0.156 (1 samples)
Overall average accepted flit rate = 0.170594 (1 samples)
Overall maximum accepted flit rate = 0.1916 (1 samples)
Overall average injected packet size = 2.00004 (1 samples)
Overall average accepted packet size = 1.99949 (1 samples)
Overall average hops = 8.99883 (1 samples)
====== Traffic class 1 ======
Overall minimum packet latency = 18 (1 samples)
Overall average packet latency = 50.5506 (1 samples)
Overall maximum packet latency = 98 (1 samples)
Overall minimum network latency = 18 (1 samples)
Overall average network latency = 50.524 (1 samples)
Overall maximum network latency = 97 (1 samples)
Overall minimum flit latency = 17 (1 samples)
Overall average flit latency = 49.5078 (1 samples)
Overall maximum flit latency = 96 (1 samples)
Overall minimum fragmentation = 0 (1 samples)
Overall average fragmentation = 0 (1 samples)
Overall maximum fragmentation = 0 (1 samples)
Overall minimum injected packet rate = 0.0192 (1 samples)
Overall average injected packet rate = 0.0250844 (1 samples)
Overall maximum injected packet rate = 0.0288 (1 samples)
Overall minimum accepted packet rate = 0.0192 (1 samples)
Overall average accepted packet rate = 0.0250156 (1 samples)
Overall maximum accepted packet rate = 0.0292 (1 samples)
Overall minimum injected flit rate = 0.0384 (1 samples)
Overall average injected flit rate = 0.0501687 (1 samples)
Overall maximum injected flit rate = 0.0576 (1 samples)
Overall minimum accepted flit rate = 0.0384 (1 samples)
Overall average accepted flit rate = 0.050025 (1 samples)
Overall maximum accepted flit rate = 0.0584 (1 samples)
Overall average injected packet size = 2 (1 samples)
Overall average accepted packet size = 1.99975 (1 samples)
Overall average hops = 9.00349 (1 samples)
Total run time 10.3245
