BEGIN Configuration File: ./examples/project_inputs/config-iqevc_tp-uniform_c1ir-0.05_c0ir-0.11_prio-select
//
// EVC Router Config File -         
//
// Jason Deng, Mike Wang        
//        

//
// Flow control
//

num_vcs     = 5;
vc_buf_size = 6;

wait_for_tail_credit = 0;

vc_allocator = select;
sw_allocator = select;
alloc_iters  = 2;

credit_delay   = 2;
routing_delay  = 1;
vc_alloc_delay = 1;
sw_alloc_delay = 1;
st_final_delay = 1;

input_speedup     = 1;
output_speedup    = 1;
internal_speedup  = 1.0;

//
// Traffic
//

sim_type = latency;

warmup_periods = 3;
sample_period  = 1000;
sim_count = 1;

//
//topoogy
//

topology = mesh;
k  = 8;
n  = 2;

//
// Routing
//

router = iqevc;
routing_function = dor;

packet_size = 2;
use_read_write = 0;

traffic  = uniform;
injection_rate = {0.11,0.05};
injection_rate_uses_flits = 1;

classes = 2;
class_priority = {0,1};
priority = class;

noq = 0;
hold_switch_for_packet = 0;
vc_prioritize_empty = 0;

//
// express virtual channel settings
//

evc = 1;
num_evcs = 1;
evc_prioritized_class = 1;
selective_vc_request = 1;
hold_switch_for_evc_packet = 1;
evc_next_route = 0;

END Configuration File: ./examples/project_inputs/config-iqevc_tp-uniform_c1ir-0.05_c0ir-0.11_prio-select
0
Class 0:
Minimum packet latency = 8
Average packet latency = 35.7496
Maximum packet latency = 82
Minimum network latency = 8
Average network latency = 35.5755
Maximum network latency = 82
Slowest packet = 4451
Minimum flit latency = 7
Average flit latency = 34.2884
Maximum flit latency = 81
Slowest flit = 8902
Minimum fragmentation = 0
Average fragmentation = 0.535915
Maximum fragmentation = 17
Minimum injected packet rate = 0.04 (at node 9)
Average injected packet rate = 0.0546406
Maximum injected packet rate = 0.072 (at node 32)
Minimum accepted packet rate = 0.038 (at node 30)
Average accepted packet rate = 0.0528594
Maximum accepted packet rate = 0.071 (at node 47)
Minimum injected flit rate = 0.08 (at node 9)
Average injected flit rate = 0.109234
Maximum injected flit rate = 0.144 (at node 32)
Minimum accepted flit rate = 0.076 (at node 30)
Average accepted flit rate = 0.105828
Maximum accepted flit rate = 0.142 (at node 47)
Average injected packet length = 1.99914
Average accepted packet length = 2.00207
Total in-flight flits = 221 (0 measured)
Class 1:
Minimum packet latency = 8
Average packet latency = 35.1288
Maximum packet latency = 78
Minimum network latency = 8
Average network latency = 35.0968
Maximum network latency = 78
Slowest packet = 1635
Minimum flit latency = 7
Average flit latency = 34.0968
Maximum flit latency = 77
Slowest flit = 3270
Minimum fragmentation = 0
Average fragmentation = 0
Maximum fragmentation = 0
Minimum injected packet rate = 0.012 (at node 61)
Average injected packet rate = 0.0246094
Maximum injected packet rate = 0.035 (at node 6)
Minimum accepted packet rate = 0.01 (at node 23)
Average accepted packet rate = 0.0238906
Maximum accepted packet rate = 0.037 (at node 5)
Minimum injected flit rate = 0.024 (at node 61)
Average injected flit rate = 0.0492031
Maximum injected flit rate = 0.07 (at node 6)
Minimum accepted flit rate = 0.02 (at node 23)
Average accepted flit rate = 0.0477812
Maximum accepted flit rate = 0.074 (at node 5)
Average injected packet length = 1.99937
Average accepted packet length = 2
Total in-flight flits = 92 (0 measured)
latency change    = 1
throughput change = 1
latency change    = 1
throughput change = 1
0
Class 0:
Minimum packet latency = 8
Average packet latency = 35.7133
Maximum packet latency = 86
Minimum network latency = 8
Average network latency = 35.5419
Maximum network latency = 86
Slowest packet = 7559
Minimum flit latency = 7
Average flit latency = 34.2461
Maximum flit latency = 85
Slowest flit = 15118
Minimum fragmentation = 0
Average fragmentation = 0.538639
Maximum fragmentation = 17
Minimum injected packet rate = 0.045 (at node 42)
Average injected packet rate = 0.0552187
Maximum injected packet rate = 0.065 (at node 58)
Minimum accepted packet rate = 0.0435 (at node 15)
Average accepted packet rate = 0.0542891
Maximum accepted packet rate = 0.0675 (at node 14)
Minimum injected flit rate = 0.09 (at node 42)
Average injected flit rate = 0.110398
Maximum injected flit rate = 0.13 (at node 58)
Minimum accepted flit rate = 0.087 (at node 15)
Average accepted flit rate = 0.108625
Maximum accepted flit rate = 0.135 (at node 14)
Average injected packet length = 1.99929
Average accepted packet length = 2.00086
Total in-flight flits = 234 (0 measured)
Class 1:
Minimum packet latency = 8
Average packet latency = 35.4039
Maximum packet latency = 89
Minimum network latency = 8
Average network latency = 35.3717
Maximum network latency = 89
Slowest packet = 6406
Minimum flit latency = 7
Average flit latency = 34.3767
Maximum flit latency = 88
Slowest flit = 12812
Minimum fragmentation = 0
Average fragmentation = 0
Maximum fragmentation = 0
Minimum injected packet rate = 0.0185 (at node 14)
Average injected packet rate = 0.0252031
Maximum injected packet rate = 0.0355 (at node 6)
Minimum accepted packet rate = 0.016 (at node 23)
Average accepted packet rate = 0.0247578
Maximum accepted packet rate = 0.0365 (at node 3)
Minimum injected flit rate = 0.037 (at node 14)
Average injected flit rate = 0.0503906
Maximum injected flit rate = 0.071 (at node 6)
Minimum accepted flit rate = 0.032 (at node 23)
Average accepted flit rate = 0.0495234
Maximum accepted flit rate = 0.073 (at node 3)
Average injected packet length = 1.99938
Average accepted packet length = 2.00032
Total in-flight flits = 113 (0 measured)
latency change    = 0.00101616
throughput change = 0.025748
latency change    = 0.0077695
throughput change = 0.0351791
0
Class 0:
Minimum packet latency = 8
Average packet latency = 35.8995
Maximum packet latency = 79
Minimum network latency = 8
Average network latency = 35.7513
Maximum network latency = 79
Slowest packet = 14260
Minimum flit latency = 7
Average flit latency = 34.4533
Maximum flit latency = 78
Slowest flit = 28520
Minimum fragmentation = 0
Average fragmentation = 0.571952
Maximum fragmentation = 19
Minimum injected packet rate = 0.039 (at node 50)
Average injected packet rate = 0.0554219
Maximum injected packet rate = 0.067 (at node 36)
Minimum accepted packet rate = 0.032 (at node 16)
Average accepted packet rate = 0.0554844
Maximum accepted packet rate = 0.07 (at node 10)
Minimum injected flit rate = 0.078 (at node 50)
Average injected flit rate = 0.110875
Maximum injected flit rate = 0.134 (at node 36)
Minimum accepted flit rate = 0.064 (at node 16)
Average accepted flit rate = 0.110984
Maximum accepted flit rate = 0.141 (at node 10)
Average injected packet length = 2.00056
Average accepted packet length = 2.00028
Total in-flight flits = 223 (0 measured)
Class 1:
Minimum packet latency = 8
Average packet latency = 35.9626
Maximum packet latency = 80
Minimum network latency = 8
Average network latency = 35.9404
Maximum network latency = 80
Slowest packet = 14375
Minimum flit latency = 7
Average flit latency = 34.9264
Maximum flit latency = 79
Slowest flit = 28750
Minimum fragmentation = 0
Average fragmentation = 0
Maximum fragmentation = 0
Minimum injected packet rate = 0.013 (at node 0)
Average injected packet rate = 0.024625
Maximum injected packet rate = 0.034 (at node 19)
Minimum accepted packet rate = 0.013 (at node 38)
Average accepted packet rate = 0.0246406
Maximum accepted packet rate = 0.036 (at node 0)
Minimum injected flit rate = 0.026 (at node 0)
Average injected flit rate = 0.0492656
Maximum injected flit rate = 0.068 (at node 19)
Minimum accepted flit rate = 0.026 (at node 38)
Average accepted flit rate = 0.0492812
Maximum accepted flit rate = 0.072 (at node 0)
Average injected packet length = 2.00063
Average accepted packet length = 2
Total in-flight flits = 111 (0 measured)
latency change    = 0.00518461
throughput change = 0.0212586
latency change    = 0.0155349
throughput change = 0.00491439
Warmed up ...Time used is 3000 cycles
1
Class 0:
Minimum packet latency = 8
Average packet latency = 34.95
Maximum packet latency = 81
Minimum network latency = 8
Average network latency = 34.777
Maximum network latency = 81
Slowest packet = 18220
Minimum flit latency = 7
Average flit latency = 33.6923
Maximum flit latency = 84
Slowest flit = 30736
Minimum fragmentation = 0
Average fragmentation = 0.519306
Maximum fragmentation = 12
Minimum injected packet rate = 0.041 (at node 3)
Average injected packet rate = 0.0542813
Maximum injected packet rate = 0.074 (at node 32)
Minimum accepted packet rate = 0.038 (at node 34)
Average accepted packet rate = 0.054
Maximum accepted packet rate = 0.068 (at node 44)
Minimum injected flit rate = 0.082 (at node 3)
Average injected flit rate = 0.108484
Maximum injected flit rate = 0.148 (at node 32)
Minimum accepted flit rate = 0.076 (at node 34)
Average accepted flit rate = 0.107969
Maximum accepted flit rate = 0.136 (at node 44)
Average injected packet length = 1.99856
Average accepted packet length = 1.99942
Total in-flight flits = 261 (261 measured)
Class 1:
Minimum packet latency = 8
Average packet latency = 35.3032
Maximum packet latency = 79
Minimum network latency = 8
Average network latency = 35.2766
Maximum network latency = 79
Slowest packet = 17315
Minimum flit latency = 7
Average flit latency = 34.4477
Maximum flit latency = 78
Slowest flit = 34630
Minimum fragmentation = 0
Average fragmentation = 0
Maximum fragmentation = 0
Minimum injected packet rate = 0.013 (at node 55)
Average injected packet rate = 0.0250313
Maximum injected packet rate = 0.038 (at node 15)
Minimum accepted packet rate = 0.012 (at node 12)
Average accepted packet rate = 0.0249375
Maximum accepted packet rate = 0.035 (at node 3)
Minimum injected flit rate = 0.026 (at node 55)
Average injected flit rate = 0.0500625
Maximum injected flit rate = 0.076 (at node 15)
Minimum accepted flit rate = 0.024 (at node 12)
Average accepted flit rate = 0.049875
Maximum accepted flit rate = 0.07 (at node 3)
Average injected packet length = 2
Average accepted packet length = 2
Total in-flight flits = 123 (123 measured)
latency change    = 0.0271659
throughput change = 0.0279305
latency change    = 0.0186765
throughput change = 0.0119048
1
Class 0:
Minimum packet latency = 8
Average packet latency = 35.4269
Maximum packet latency = 83
Minimum network latency = 8
Average network latency = 35.257
Maximum network latency = 83
Slowest packet = 20794
Minimum flit latency = 7
Average flit latency = 34.0576
Maximum flit latency = 84
Slowest flit = 30736
Minimum fragmentation = 0
Average fragmentation = 0.535528
Maximum fragmentation = 12
Minimum injected packet rate = 0.045 (at node 12)
Average injected packet rate = 0.0548125
Maximum injected packet rate = 0.0685 (at node 32)
Minimum accepted packet rate = 0.0445 (at node 63)
Average accepted packet rate = 0.0547734
Maximum accepted packet rate = 0.069 (at node 51)
Minimum injected flit rate = 0.09 (at node 12)
Average injected flit rate = 0.109617
Maximum injected flit rate = 0.137 (at node 32)
Minimum accepted flit rate = 0.089 (at node 63)
Average accepted flit rate = 0.109516
Maximum accepted flit rate = 0.138 (at node 51)
Average injected packet length = 1.99986
Average accepted packet length = 1.99943
Total in-flight flits = 237 (237 measured)
Class 1:
Minimum packet latency = 8
Average packet latency = 35.3419
Maximum packet latency = 79
Minimum network latency = 8
Average network latency = 35.3148
Maximum network latency = 79
Slowest packet = 17315
Minimum flit latency = 7
Average flit latency = 34.3977
Maximum flit latency = 78
Slowest flit = 34630
Minimum fragmentation = 0
Average fragmentation = 0
Maximum fragmentation = 0
Minimum injected packet rate = 0.017 (at node 55)
Average injected packet rate = 0.0248984
Maximum injected packet rate = 0.0315 (at node 15)
Minimum accepted packet rate = 0.018 (at node 16)
Average accepted packet rate = 0.0249297
Maximum accepted packet rate = 0.0325 (at node 53)
Minimum injected flit rate = 0.034 (at node 55)
Average injected flit rate = 0.0497891
Maximum injected flit rate = 0.063 (at node 15)
Minimum accepted flit rate = 0.036 (at node 16)
Average accepted flit rate = 0.0498594
Maximum accepted flit rate = 0.065 (at node 53)
Average injected packet length = 1.99969
Average accepted packet length = 2
Total in-flight flits = 103 (103 measured)
latency change    = 0.0134615
throughput change = 0.0141247
latency change    = 0.00109499
throughput change = 0.000313381
1
Class 0:
Minimum packet latency = 8
Average packet latency = 35.5977
Maximum packet latency = 83
Minimum network latency = 8
Average network latency = 35.4269
Maximum network latency = 83
Slowest packet = 20794
Minimum flit latency = 7
Average flit latency = 34.1826
Maximum flit latency = 84
Slowest flit = 30736
Minimum fragmentation = 0
Average fragmentation = 0.552748
Maximum fragmentation = 12
Minimum injected packet rate = 0.0443333 (at node 10)
Average injected packet rate = 0.0549219
Maximum injected packet rate = 0.0663333 (at node 61)
Minimum accepted packet rate = 0.0466667 (at node 43)
Average accepted packet rate = 0.0548073
Maximum accepted packet rate = 0.064 (at node 54)
Minimum injected flit rate = 0.0886667 (at node 10)
Average injected flit rate = 0.109833
Maximum injected flit rate = 0.132667 (at node 61)
Minimum accepted flit rate = 0.0936667 (at node 43)
Average accepted flit rate = 0.109625
Maximum accepted flit rate = 0.128 (at node 54)
Average injected packet length = 1.99981
Average accepted packet length = 2.00019
Total in-flight flits = 265 (265 measured)
Class 1:
Minimum packet latency = 8
Average packet latency = 35.2761
Maximum packet latency = 86
Minimum network latency = 8
Average network latency = 35.2486
Maximum network latency = 86
Slowest packet = 25793
Minimum flit latency = 7
Average flit latency = 34.3066
Maximum flit latency = 85
Slowest flit = 51586
Minimum fragmentation = 0
Average fragmentation = 0
Maximum fragmentation = 0
Minimum injected packet rate = 0.0176667 (at node 55)
Average injected packet rate = 0.0253906
Maximum injected packet rate = 0.0333333 (at node 60)
Minimum accepted packet rate = 0.0193333 (at node 38)
Average accepted packet rate = 0.0253438
Maximum accepted packet rate = 0.0323333 (at node 10)
Minimum injected flit rate = 0.0353333 (at node 55)
Average injected flit rate = 0.0507812
Maximum injected flit rate = 0.0666667 (at node 60)
Minimum accepted flit rate = 0.0386667 (at node 38)
Average accepted flit rate = 0.0506875
Maximum accepted flit rate = 0.0646667 (at node 10)
Average injected packet length = 2
Average accepted packet length = 2
Total in-flight flits = 129 (129 measured)
latency change    = 0.00479804
throughput change = 0.000997719
latency change    = 0.00186683
throughput change = 0.0163379
Draining all recorded packets ...
Draining remaining packets ...
Time taken is 6124 cycles
====== Traffic class 0 ======
Overall minimum packet latency = 8 (1 samples)
Overall average packet latency = 35.6626 (1 samples)
Overall maximum packet latency = 83 (1 samples)
Overall minimum network latency = 8 (1 samples)
Overall average network latency = 35.4905 (1 samples)
Overall maximum network latency = 83 (1 samples)
Overall minimum flit latency = 7 (1 samples)
Overall average flit latency = 34.2383 (1 samples)
Overall maximum flit latency = 84 (1 samples)
Overall minimum fragmentation = 0 (1 samples)
Overall average fragmentation = 0.55486 (1 samples)
Overall maximum fragmentation = 12 (1 samples)
Overall minimum injected packet rate = 0.0443333 (1 samples)
Overall average injected packet rate = 0.0549219 (1 samples)
Overall maximum injected packet rate = 0.0663333 (1 samples)
Overall minimum accepted packet rate = 0.0466667 (1 samples)
Overall average accepted packet rate = 0.0548073 (1 samples)
Overall maximum accepted packet rate = 0.064 (1 samples)
Overall minimum injected flit rate = 0.0886667 (1 samples)
Overall average injected flit rate = 0.109833 (1 samples)
Overall maximum injected flit rate = 0.132667 (1 samples)
Overall minimum accepted flit rate = 0.0936667 (1 samples)
Overall average accepted flit rate = 0.109625 (1 samples)
Overall maximum accepted flit rate = 0.128 (1 samples)
Overall average injected packet size = 1.99981 (1 samples)
Overall average accepted packet size = 2.00019 (1 samples)
Overall average hops = 6.20474 (1 samples)
====== Traffic class 1 ======
Overall minimum packet latency = 8 (1 samples)
Overall average packet latency = 35.3518 (1 samples)
Overall maximum packet latency = 86 (1 samples)
Overall minimum network latency = 8 (1 samples)
Overall average network latency = 35.3247 (1 samples)
Overall maximum network latency = 86 (1 samples)
Overall minimum flit latency = 7 (1 samples)
Overall average flit latency = 34.3874 (1 samples)
Overall maximum flit latency = 85 (1 samples)
Overall minimum fragmentation = 0 (1 samples)
Overall average fragmentation = 0 (1 samples)
Overall maximum fragmentation = 0 (1 samples)
Overall minimum injected packet rate = 0.0176667 (1 samples)
Overall average injected packet rate = 0.0253906 (1 samples)
Overall maximum injected packet rate = 0.0333333 (1 samples)
Overall minimum accepted packet rate = 0.0193333 (1 samples)
Overall average accepted packet rate = 0.0253438 (1 samples)
Overall maximum accepted packet rate = 0.0323333 (1 samples)
Overall minimum injected flit rate = 0.0353333 (1 samples)
Overall average injected flit rate = 0.0507812 (1 samples)
Overall maximum injected flit rate = 0.0666667 (1 samples)
Overall minimum accepted flit rate = 0.0386667 (1 samples)
Overall average accepted flit rate = 0.0506875 (1 samples)
Overall maximum accepted flit rate = 0.0646667 (1 samples)
Overall average injected packet size = 2 (1 samples)
Overall average accepted packet size = 2 (1 samples)
Overall average hops = 6.24164 (1 samples)
Total run time 4.2284
