BEGIN Configuration File: ./examples/project_inputs/config-iqevc_tp-bitcomp_c1ir-0.05_c0ir-0.13_prio-select
//
// EVC Router Config File -         
//
// Jason Deng, Mike Wang        
//        

//
// Flow control
//

num_vcs     = 5;
vc_buf_size = 6;

wait_for_tail_credit = 0;

vc_allocator = select;
sw_allocator = select;
alloc_iters  = 2;

credit_delay   = 2;
routing_delay  = 1;
vc_alloc_delay = 1;
sw_alloc_delay = 1;
st_final_delay = 1;

input_speedup     = 1;
output_speedup    = 1;
internal_speedup  = 1.0;

//
// Traffic
//

sim_type = latency;

warmup_periods = 3;
sample_period  = 1000;
sim_count = 1;

//
//topoogy
//

topology = mesh;
k  = 8;
n  = 2;

//
// Routing
//

router = iqevc;
routing_function = dor;

packet_size = 2;
use_read_write = 0;

traffic  = bitcomp;
injection_rate = {0.13,0.05};
injection_rate_uses_flits = 1;

classes = 2;
class_priority = {0,1};
priority = class;

noq = 0;
hold_switch_for_packet = 0;
vc_prioritize_empty = 0;

//
// express virtual channel settings
//

evc = 1;
num_evcs = 1;
evc_prioritized_class = 1;
selective_vc_request = 1;
hold_switch_for_evc_packet = 1;
evc_next_route = 0;

END Configuration File: ./examples/project_inputs/config-iqevc_tp-bitcomp_c1ir-0.05_c0ir-0.13_prio-select
0
Class 0:
Minimum packet latency = 18
Average packet latency = 54.3398
Maximum packet latency = 122
Minimum network latency = 18
Average network latency = 54.1605
Maximum network latency = 122
Slowest packet = 3411
Minimum flit latency = 17
Average flit latency = 52.4952
Maximum flit latency = 121
Slowest flit = 6823
Minimum fragmentation = 0
Average fragmentation = 1.2794
Maximum fragmentation = 24
Minimum injected packet rate = 0.046 (at node 42)
Average injected packet rate = 0.0631094
Maximum injected packet rate = 0.085 (at node 57)
Minimum accepted packet rate = 0.043 (at node 21)
Average accepted packet rate = 0.0597813
Maximum accepted packet rate = 0.081 (at node 6)
Minimum injected flit rate = 0.092 (at node 42)
Average injected flit rate = 0.126125
Maximum injected flit rate = 0.17 (at node 57)
Minimum accepted flit rate = 0.086 (at node 21)
Average accepted flit rate = 0.119672
Maximum accepted flit rate = 0.162 (at node 6)
Average injected packet length = 1.99851
Average accepted packet length = 2.00183
Total in-flight flits = 419 (0 measured)
Class 1:
Minimum packet latency = 18
Average packet latency = 51.0545
Maximum packet latency = 95
Minimum network latency = 18
Average network latency = 51.0297
Maximum network latency = 95
Slowest packet = 1774
Minimum flit latency = 17
Average flit latency = 50.0232
Maximum flit latency = 94
Slowest flit = 3548
Minimum fragmentation = 0
Average fragmentation = 0
Maximum fragmentation = 0
Minimum injected packet rate = 0.015 (at node 41)
Average injected packet rate = 0.0264219
Maximum injected packet rate = 0.035 (at node 51)
Minimum accepted packet rate = 0.014 (at node 22)
Average accepted packet rate = 0.0252344
Maximum accepted packet rate = 0.035 (at node 12)
Minimum injected flit rate = 0.03 (at node 41)
Average injected flit rate = 0.0528281
Maximum injected flit rate = 0.07 (at node 51)
Minimum accepted flit rate = 0.028 (at node 22)
Average accepted flit rate = 0.0505
Maximum accepted flit rate = 0.07 (at node 12)
Average injected packet length = 1.99941
Average accepted packet length = 2.00124
Total in-flight flits = 150 (0 measured)
latency change    = 1
throughput change = 1
latency change    = 1
throughput change = 1
0
Class 0:
Minimum packet latency = 18
Average packet latency = 54.6959
Maximum packet latency = 122
Minimum network latency = 18
Average network latency = 54.5265
Maximum network latency = 122
Slowest packet = 3411
Minimum flit latency = 17
Average flit latency = 52.8555
Maximum flit latency = 121
Slowest flit = 6823
Minimum fragmentation = 0
Average fragmentation = 1.27721
Maximum fragmentation = 24
Minimum injected packet rate = 0.049 (at node 46)
Average injected packet rate = 0.06425
Maximum injected packet rate = 0.076 (at node 15)
Minimum accepted packet rate = 0.0475 (at node 17)
Average accepted packet rate = 0.0623672
Maximum accepted packet rate = 0.0745 (at node 39)
Minimum injected flit rate = 0.098 (at node 46)
Average injected flit rate = 0.128453
Maximum injected flit rate = 0.152 (at node 15)
Minimum accepted flit rate = 0.095 (at node 17)
Average accepted flit rate = 0.124828
Maximum accepted flit rate = 0.149 (at node 39)
Average injected packet length = 1.99927
Average accepted packet length = 2.0015
Total in-flight flits = 472 (0 measured)
Class 1:
Minimum packet latency = 18
Average packet latency = 50.5428
Maximum packet latency = 95
Minimum network latency = 18
Average network latency = 50.5207
Maximum network latency = 95
Slowest packet = 1774
Minimum flit latency = 17
Average flit latency = 49.5259
Maximum flit latency = 94
Slowest flit = 3548
Minimum fragmentation = 0
Average fragmentation = 0
Maximum fragmentation = 0
Minimum injected packet rate = 0.0165 (at node 41)
Average injected packet rate = 0.0256094
Maximum injected packet rate = 0.033 (at node 54)
Minimum accepted packet rate = 0.0165 (at node 22)
Average accepted packet rate = 0.0250703
Maximum accepted packet rate = 0.0325 (at node 9)
Minimum injected flit rate = 0.033 (at node 41)
Average injected flit rate = 0.0512188
Maximum injected flit rate = 0.066 (at node 54)
Minimum accepted flit rate = 0.033 (at node 22)
Average accepted flit rate = 0.0501562
Maximum accepted flit rate = 0.065 (at node 9)
Average injected packet length = 2
Average accepted packet length = 2.00062
Total in-flight flits = 136 (0 measured)
latency change    = 0.00651006
throughput change = 0.0413068
latency change    = 0.0101229
throughput change = 0.00685358
0
Class 0:
Minimum packet latency = 18
Average packet latency = 55.0009
Maximum packet latency = 126
Minimum network latency = 18
Average network latency = 54.8368
Maximum network latency = 126
Slowest packet = 13394
Minimum flit latency = 17
Average flit latency = 53.1567
Maximum flit latency = 125
Slowest flit = 26789
Minimum fragmentation = 0
Average fragmentation = 1.3294
Maximum fragmentation = 36
Minimum injected packet rate = 0.052 (at node 63)
Average injected packet rate = 0.0659375
Maximum injected packet rate = 0.08 (at node 16)
Minimum accepted packet rate = 0.049 (at node 0)
Average accepted packet rate = 0.0661719
Maximum accepted packet rate = 0.078 (at node 40)
Minimum injected flit rate = 0.104 (at node 63)
Average injected flit rate = 0.131922
Maximum injected flit rate = 0.16 (at node 16)
Minimum accepted flit rate = 0.098 (at node 0)
Average accepted flit rate = 0.132297
Maximum accepted flit rate = 0.157 (at node 40)
Average injected packet length = 2.00071
Average accepted packet length = 1.99929
Total in-flight flits = 443 (0 measured)
Class 1:
Minimum packet latency = 18
Average packet latency = 50.8768
Maximum packet latency = 125
Minimum network latency = 18
Average network latency = 50.8544
Maximum network latency = 125
Slowest packet = 14521
Minimum flit latency = 17
Average flit latency = 49.8432
Maximum flit latency = 124
Slowest flit = 29042
Minimum fragmentation = 0
Average fragmentation = 0
Maximum fragmentation = 0
Minimum injected packet rate = 0.013 (at node 21)
Average injected packet rate = 0.0245156
Maximum injected packet rate = 0.037 (at node 22)
Minimum accepted packet rate = 0.013 (at node 42)
Average accepted packet rate = 0.0244688
Maximum accepted packet rate = 0.037 (at node 56)
Minimum injected flit rate = 0.026 (at node 21)
Average injected flit rate = 0.0490312
Maximum injected flit rate = 0.074 (at node 22)
Minimum accepted flit rate = 0.026 (at node 42)
Average accepted flit rate = 0.0489219
Maximum accepted flit rate = 0.074 (at node 56)
Average injected packet length = 2
Average accepted packet length = 1.99936
Total in-flight flits = 143 (0 measured)
latency change    = 0.00554701
throughput change = 0.0564545
latency change    = 0.00656307
throughput change = 0.0252316
Warmed up ...Time used is 3000 cycles
1
Class 0:
Minimum packet latency = 18
Average packet latency = 53.9086
Maximum packet latency = 133
Minimum network latency = 18
Average network latency = 53.732
Maximum network latency = 133
Slowest packet = 20144
Minimum flit latency = 15
Average flit latency = 52.4397
Maximum flit latency = 132
Slowest flit = 40288
Minimum fragmentation = 0
Average fragmentation = 1.24204
Maximum fragmentation = 22
Minimum injected packet rate = 0.049 (at node 18)
Average injected packet rate = 0.0646406
Maximum injected packet rate = 0.093 (at node 2)
Minimum accepted packet rate = 0.051 (at node 6)
Average accepted packet rate = 0.0644062
Maximum accepted packet rate = 0.087 (at node 61)
Minimum injected flit rate = 0.099 (at node 18)
Average injected flit rate = 0.12925
Maximum injected flit rate = 0.186 (at node 2)
Minimum accepted flit rate = 0.102 (at node 6)
Average accepted flit rate = 0.128828
Maximum accepted flit rate = 0.176 (at node 61)
Average injected packet length = 1.99952
Average accepted packet length = 2.00024
Total in-flight flits = 472 (472 measured)
Class 1:
Minimum packet latency = 18
Average packet latency = 49.8618
Maximum packet latency = 91
Minimum network latency = 18
Average network latency = 49.8303
Maximum network latency = 90
Slowest packet = 19030
Minimum flit latency = 17
Average flit latency = 49.0556
Maximum flit latency = 89
Slowest flit = 38060
Minimum fragmentation = 0
Average fragmentation = 0
Maximum fragmentation = 0
Minimum injected packet rate = 0.016 (at node 5)
Average injected packet rate = 0.0251719
Maximum injected packet rate = 0.041 (at node 21)
Minimum accepted packet rate = 0.016 (at node 46)
Average accepted packet rate = 0.024875
Maximum accepted packet rate = 0.041 (at node 42)
Minimum injected flit rate = 0.031 (at node 17)
Average injected flit rate = 0.0503125
Maximum injected flit rate = 0.082 (at node 21)
Minimum accepted flit rate = 0.032 (at node 46)
Average accepted flit rate = 0.0497656
Maximum accepted flit rate = 0.082 (at node 42)
Average injected packet length = 1.99876
Average accepted packet length = 2.00063
Total in-flight flits = 180 (180 measured)
latency change    = 0.0202624
throughput change = 0.0269254
latency change    = 0.0203545
throughput change = 0.0169545
1
Class 0:
Minimum packet latency = 18
Average packet latency = 54.3249
Maximum packet latency = 136
Minimum network latency = 18
Average network latency = 54.1493
Maximum network latency = 136
Slowest packet = 27688
Minimum flit latency = 15
Average flit latency = 52.6477
Maximum flit latency = 135
Slowest flit = 55377
Minimum fragmentation = 0
Average fragmentation = 1.2765
Maximum fragmentation = 26
Minimum injected packet rate = 0.05 (at node 16)
Average injected packet rate = 0.0644219
Maximum injected packet rate = 0.0775 (at node 48)
Minimum accepted packet rate = 0.0535 (at node 47)
Average accepted packet rate = 0.0644922
Maximum accepted packet rate = 0.077 (at node 15)
Minimum injected flit rate = 0.0995 (at node 16)
Average injected flit rate = 0.12882
Maximum injected flit rate = 0.155 (at node 48)
Minimum accepted flit rate = 0.107 (at node 47)
Average accepted flit rate = 0.128945
Maximum accepted flit rate = 0.1545 (at node 29)
Average injected packet length = 1.99964
Average accepted packet length = 1.99939
Total in-flight flits = 430 (430 measured)
Class 1:
Minimum packet latency = 18
Average packet latency = 50.2363
Maximum packet latency = 104
Minimum network latency = 18
Average network latency = 50.2094
Maximum network latency = 104
Slowest packet = 26772
Minimum flit latency = 17
Average flit latency = 49.3181
Maximum flit latency = 103
Slowest flit = 53544
Minimum fragmentation = 0
Average fragmentation = 0
Maximum fragmentation = 0
Minimum injected packet rate = 0.0145 (at node 13)
Average injected packet rate = 0.0251797
Maximum injected packet rate = 0.035 (at node 21)
Minimum accepted packet rate = 0.0145 (at node 50)
Average accepted packet rate = 0.0252578
Maximum accepted packet rate = 0.034 (at node 10)
Minimum injected flit rate = 0.029 (at node 13)
Average injected flit rate = 0.0503594
Maximum injected flit rate = 0.07 (at node 21)
Minimum accepted flit rate = 0.029 (at node 50)
Average accepted flit rate = 0.0505156
Maximum accepted flit rate = 0.068 (at node 10)
Average injected packet length = 2
Average accepted packet length = 2
Total in-flight flits = 123 (123 measured)
latency change    = 0.00766357
throughput change = 0.000908816
latency change    = 0.00745428
throughput change = 0.0148469
1
Class 0:
Minimum packet latency = 18
Average packet latency = 54.5124
Maximum packet latency = 136
Minimum network latency = 18
Average network latency = 54.3365
Maximum network latency = 136
Slowest packet = 27688
Minimum flit latency = 15
Average flit latency = 52.7725
Maximum flit latency = 135
Slowest flit = 55377
Minimum fragmentation = 0
Average fragmentation = 1.28726
Maximum fragmentation = 31
Minimum injected packet rate = 0.0523333 (at node 16)
Average injected packet rate = 0.0647188
Maximum injected packet rate = 0.074 (at node 17)
Minimum accepted packet rate = 0.0536667 (at node 47)
Average accepted packet rate = 0.0647083
Maximum accepted packet rate = 0.075 (at node 46)
Minimum injected flit rate = 0.104667 (at node 16)
Average injected flit rate = 0.129432
Maximum injected flit rate = 0.148 (at node 17)
Minimum accepted flit rate = 0.107333 (at node 47)
Average accepted flit rate = 0.129422
Maximum accepted flit rate = 0.15 (at node 46)
Average injected packet length = 1.99992
Average accepted packet length = 2.00008
Total in-flight flits = 446 (446 measured)
Class 1:
Minimum packet latency = 18
Average packet latency = 50.3305
Maximum packet latency = 104
Minimum network latency = 18
Average network latency = 50.3025
Maximum network latency = 104
Slowest packet = 26772
Minimum flit latency = 17
Average flit latency = 49.3735
Maximum flit latency = 103
Slowest flit = 53544
Minimum fragmentation = 0
Average fragmentation = 0
Maximum fragmentation = 0
Minimum injected packet rate = 0.017 (at node 13)
Average injected packet rate = 0.0254115
Maximum injected packet rate = 0.0313333 (at node 39)
Minimum accepted packet rate = 0.0166667 (at node 50)
Average accepted packet rate = 0.0253385
Maximum accepted packet rate = 0.031 (at node 24)
Minimum injected flit rate = 0.034 (at node 13)
Average injected flit rate = 0.0508177
Maximum injected flit rate = 0.0626667 (at node 39)
Minimum accepted flit rate = 0.0333333 (at node 50)
Average accepted flit rate = 0.0506719
Maximum accepted flit rate = 0.062 (at node 24)
Average injected packet length = 1.9998
Average accepted packet length = 1.99979
Total in-flight flits = 172 (172 measured)
latency change    = 0.00343834
throughput change = 0.00368224
latency change    = 0.00187092
throughput change = 0.00308356
Draining all recorded packets ...
Draining remaining packets ...
Time taken is 6168 cycles
====== Traffic class 0 ======
Overall minimum packet latency = 18 (1 samples)
Overall average packet latency = 54.648 (1 samples)
Overall maximum packet latency = 136 (1 samples)
Overall minimum network latency = 18 (1 samples)
Overall average network latency = 54.4711 (1 samples)
Overall maximum network latency = 136 (1 samples)
Overall minimum flit latency = 15 (1 samples)
Overall average flit latency = 52.9012 (1 samples)
Overall maximum flit latency = 135 (1 samples)
Overall minimum fragmentation = 0 (1 samples)
Overall average fragmentation = 1.29012 (1 samples)
Overall maximum fragmentation = 31 (1 samples)
Overall minimum injected packet rate = 0.0523333 (1 samples)
Overall average injected packet rate = 0.0647188 (1 samples)
Overall maximum injected packet rate = 0.074 (1 samples)
Overall minimum accepted packet rate = 0.0536667 (1 samples)
Overall average accepted packet rate = 0.0647083 (1 samples)
Overall maximum accepted packet rate = 0.075 (1 samples)
Overall minimum injected flit rate = 0.104667 (1 samples)
Overall average injected flit rate = 0.129432 (1 samples)
Overall maximum injected flit rate = 0.148 (1 samples)
Overall minimum accepted flit rate = 0.107333 (1 samples)
Overall average accepted flit rate = 0.129422 (1 samples)
Overall maximum accepted flit rate = 0.15 (1 samples)
Overall average injected packet size = 1.99992 (1 samples)
Overall average accepted packet size = 2.00008 (1 samples)
Overall average hops = 8.9831 (1 samples)
====== Traffic class 1 ======
Overall minimum packet latency = 18 (1 samples)
Overall average packet latency = 50.4234 (1 samples)
Overall maximum packet latency = 104 (1 samples)
Overall minimum network latency = 18 (1 samples)
Overall average network latency = 50.3956 (1 samples)
Overall maximum network latency = 104 (1 samples)
Overall minimum flit latency = 17 (1 samples)
Overall average flit latency = 49.4484 (1 samples)
Overall maximum flit latency = 103 (1 samples)
Overall minimum fragmentation = 0 (1 samples)
Overall average fragmentation = 0 (1 samples)
Overall maximum fragmentation = 0 (1 samples)
Overall minimum injected packet rate = 0.017 (1 samples)
Overall average injected packet rate = 0.0254115 (1 samples)
Overall maximum injected packet rate = 0.0313333 (1 samples)
Overall minimum accepted packet rate = 0.0166667 (1 samples)
Overall average accepted packet rate = 0.0253385 (1 samples)
Overall maximum accepted packet rate = 0.031 (1 samples)
Overall minimum injected flit rate = 0.034 (1 samples)
Overall average injected flit rate = 0.0508177 (1 samples)
Overall maximum injected flit rate = 0.0626667 (1 samples)
Overall minimum accepted flit rate = 0.0333333 (1 samples)
Overall average accepted flit rate = 0.0506719 (1 samples)
Overall maximum accepted flit rate = 0.062 (1 samples)
Overall average injected packet size = 1.9998 (1 samples)
Overall average accepted packet size = 1.99979 (1 samples)
Overall average hops = 8.99016 (1 samples)
Total run time 6.23559
