BEGIN Configuration File: ./examples/project_inputs/config-iqevc_tp-transpose_c1ir-0.05_c0ir-0.19_prio-select
//
// EVC Router Config File -         
//
// Jason Deng, Mike Wang        
//        

//
// Flow control
//

num_vcs     = 5;
vc_buf_size = 6;

wait_for_tail_credit = 0;

vc_allocator = select;
sw_allocator = select;
alloc_iters  = 2;

credit_delay   = 2;
routing_delay  = 1;
vc_alloc_delay = 1;
sw_alloc_delay = 1;
st_final_delay = 1;

input_speedup     = 1;
output_speedup    = 1;
internal_speedup  = 1.0;

//
// Traffic
//

sim_type = latency;

warmup_periods = 3;
sample_period  = 1000;
sim_count = 1;

//
//topoogy
//

topology = mesh;
k  = 8;
n  = 2;

//
// Routing
//

router = iqevc;
routing_function = dor;

packet_size = 2;
use_read_write = 0;

traffic  = transpose;
injection_rate = {0.19,0.05};
injection_rate_uses_flits = 1;

classes = 2;
class_priority = {0,1};
priority = class;

noq = 0;
hold_switch_for_packet = 0;
vc_prioritize_empty = 0;

//
// express virtual channel settings
//

evc = 1;
num_evcs = 1;
evc_prioritized_class = 1;
selective_vc_request = 1;
hold_switch_for_evc_packet = 1;
evc_next_route = 0;

END Configuration File: ./examples/project_inputs/config-iqevc_tp-transpose_c1ir-0.05_c0ir-0.19_prio-select
0
Class 0:
Minimum packet latency = 8
Average packet latency = 80.3946
Maximum packet latency = 840
Minimum network latency = 8
Average network latency = 79.822
Maximum network latency = 840
Slowest packet = 1075
Minimum flit latency = 5
Average flit latency = 78.1503
Maximum flit latency = 839
Slowest flit = 2150
Minimum fragmentation = 0
Average fragmentation = 1.36972
Maximum fragmentation = 35
Minimum injected packet rate = 0.036 (at node 57)
Average injected packet rate = 0.0855
Maximum injected packet rate = 0.12 (at node 8)
Minimum accepted packet rate = 0.015 (at node 7)
Average accepted packet rate = 0.074
Maximum accepted packet rate = 0.119 (at node 1)
Minimum injected flit rate = 0.072 (at node 57)
Average injected flit rate = 0.170922
Maximum injected flit rate = 0.24 (at node 8)
Minimum accepted flit rate = 0.03 (at node 7)
Average accepted flit rate = 0.148219
Maximum accepted flit rate = 0.238 (at node 1)
Average injected packet length = 1.99909
Average accepted packet length = 2.00296
Total in-flight flits = 1498 (0 measured)
Class 1:
Minimum packet latency = 8
Average packet latency = 52.6469
Maximum packet latency = 638
Minimum network latency = 8
Average network latency = 51.1234
Maximum network latency = 638
Slowest packet = 2590
Minimum flit latency = 7
Average flit latency = 50.0325
Maximum flit latency = 637
Slowest flit = 5180
Minimum fragmentation = 0
Average fragmentation = 0
Maximum fragmentation = 0
Minimum injected packet rate = 0.015 (at node 34)
Average injected packet rate = 0.0243594
Maximum injected packet rate = 0.039 (at node 38)
Minimum accepted packet rate = 0.009 (at node 22)
Average accepted packet rate = 0.0219062
Maximum accepted packet rate = 0.037 (at node 52)
Minimum injected flit rate = 0.03 (at node 34)
Average injected flit rate = 0.0487187
Maximum injected flit rate = 0.078 (at node 38)
Minimum accepted flit rate = 0.018 (at node 22)
Average accepted flit rate = 0.0438125
Maximum accepted flit rate = 0.074 (at node 52)
Average injected packet length = 2
Average accepted packet length = 2
Total in-flight flits = 332 (0 measured)
latency change    = 1
throughput change = 1
latency change    = 1
throughput change = 1
0
Class 0:
Minimum packet latency = 8
Average packet latency = 116.076
Maximum packet latency = 1754
Minimum network latency = 8
Average network latency = 105.915
Maximum network latency = 1754
Slowest packet = 1720
Minimum flit latency = 5
Average flit latency = 104.017
Maximum flit latency = 1753
Slowest flit = 3440
Minimum fragmentation = 0
Average fragmentation = 1.5933
Maximum fragmentation = 70
Minimum injected packet rate = 0.0225 (at node 57)
Average injected packet rate = 0.0791797
Maximum injected packet rate = 0.108 (at node 54)
Minimum accepted packet rate = 0.011 (at node 7)
Average accepted packet rate = 0.0732266
Maximum accepted packet rate = 0.108 (at node 54)
Minimum injected flit rate = 0.045 (at node 57)
Average injected flit rate = 0.158328
Maximum injected flit rate = 0.216 (at node 54)
Minimum accepted flit rate = 0.022 (at node 7)
Average accepted flit rate = 0.146523
Maximum accepted flit rate = 0.216 (at node 54)
Average injected packet length = 1.99961
Average accepted packet length = 2.00096
Total in-flight flits = 1555 (0 measured)
Class 1:
Minimum packet latency = 8
Average packet latency = 87.647
Maximum packet latency = 1323
Minimum network latency = 8
Average network latency = 75.4385
Maximum network latency = 1323
Slowest packet = 3928
Minimum flit latency = 7
Average flit latency = 74.1515
Maximum flit latency = 1322
Slowest flit = 7856
Minimum fragmentation = 0
Average fragmentation = 0
Maximum fragmentation = 0
Minimum injected packet rate = 0.018 (at node 26)
Average injected packet rate = 0.0251094
Maximum injected packet rate = 0.0315 (at node 8)
Minimum accepted packet rate = 0.014 (at node 57)
Average accepted packet rate = 0.0239453
Maximum accepted packet rate = 0.031 (at node 1)
Minimum injected flit rate = 0.036 (at node 26)
Average injected flit rate = 0.0501875
Maximum injected flit rate = 0.0625 (at node 8)
Minimum accepted flit rate = 0.028 (at node 57)
Average accepted flit rate = 0.0479141
Maximum accepted flit rate = 0.062 (at node 1)
Average injected packet length = 1.99876
Average accepted packet length = 2.00098
Total in-flight flits = 307 (0 measured)
latency change    = 0.307399
throughput change = 0.0115702
latency change    = 0.39933
throughput change = 0.0856025
0
Class 0:
Minimum packet latency = 8
Average packet latency = 220.16
Maximum packet latency = 2601
Minimum network latency = 8
Average network latency = 150.394
Maximum network latency = 2601
Slowest packet = 2446
Minimum flit latency = 5
Average flit latency = 148.473
Maximum flit latency = 2600
Slowest flit = 4892
Minimum fragmentation = 0
Average fragmentation = 1.68302
Maximum fragmentation = 59
Minimum injected packet rate = 0.005 (at node 57)
Average injected packet rate = 0.0763281
Maximum injected packet rate = 0.116 (at node 37)
Minimum accepted packet rate = 0.005 (at node 15)
Average accepted packet rate = 0.0758125
Maximum accepted packet rate = 0.117 (at node 44)
Minimum injected flit rate = 0.01 (at node 57)
Average injected flit rate = 0.152641
Maximum injected flit rate = 0.232 (at node 37)
Minimum accepted flit rate = 0.01 (at node 15)
Average accepted flit rate = 0.15175
Maximum accepted flit rate = 0.234 (at node 44)
Average injected packet length = 1.9998
Average accepted packet length = 2.00165
Total in-flight flits = 1617 (0 measured)
Class 1:
Minimum packet latency = 8
Average packet latency = 116.88
Maximum packet latency = 2008
Minimum network latency = 8
Average network latency = 99.7791
Maximum network latency = 1917
Slowest packet = 4125
Minimum flit latency = 7
Average flit latency = 98.3248
Maximum flit latency = 1916
Slowest flit = 8250
Minimum fragmentation = 0
Average fragmentation = 0
Maximum fragmentation = 0
Minimum injected packet rate = 0.013 (at node 14)
Average injected packet rate = 0.02375
Maximum injected packet rate = 0.035 (at node 15)
Minimum accepted packet rate = 0.007 (at node 49)
Average accepted packet rate = 0.0233437
Maximum accepted packet rate = 0.035 (at node 21)
Minimum injected flit rate = 0.026 (at node 14)
Average injected flit rate = 0.0474844
Maximum injected flit rate = 0.07 (at node 15)
Minimum accepted flit rate = 0.014 (at node 49)
Average accepted flit rate = 0.0466563
Maximum accepted flit rate = 0.07 (at node 21)
Average injected packet length = 1.99934
Average accepted packet length = 1.99866
Total in-flight flits = 367 (0 measured)
latency change    = 0.472763
throughput change = 0.0344419
latency change    = 0.250113
throughput change = 0.0269591
Warmed up ...Time used is 3000 cycles
1
Class 0:
Minimum packet latency = 8
Average packet latency = 127.539
Maximum packet latency = 2500
Minimum network latency = 8
Average network latency = 71.3414
Maximum network latency = 902
Slowest packet = 19892
Minimum flit latency = 5
Average flit latency = 153.172
Maximum flit latency = 3488
Slowest flit = 6522
Minimum fragmentation = 0
Average fragmentation = 1.49939
Maximum fragmentation = 54
Minimum injected packet rate = 0.004 (at node 7)
Average injected packet rate = 0.0733281
Maximum injected packet rate = 0.116 (at node 8)
Minimum accepted packet rate = 0.005 (at node 7)
Average accepted packet rate = 0.0742969
Maximum accepted packet rate = 0.116 (at node 1)
Minimum injected flit rate = 0.008 (at node 7)
Average injected flit rate = 0.146594
Maximum injected flit rate = 0.232 (at node 8)
Minimum accepted flit rate = 0.01 (at node 7)
Average accepted flit rate = 0.148547
Maximum accepted flit rate = 0.232 (at node 1)
Average injected packet length = 1.99915
Average accepted packet length = 1.99937
Total in-flight flits = 1488 (1223 measured)
Class 1:
Minimum packet latency = 8
Average packet latency = 83.8692
Maximum packet latency = 936
Minimum network latency = 8
Average network latency = 64.6026
Maximum network latency = 645
Slowest packet = 19925
Minimum flit latency = 7
Average flit latency = 92.6872
Maximum flit latency = 1380
Slowest flit = 30122
Minimum fragmentation = 0
Average fragmentation = 0
Maximum fragmentation = 0
Minimum injected packet rate = 0.011 (at node 57)
Average injected packet rate = 0.0250625
Maximum injected packet rate = 0.038 (at node 7)
Minimum accepted packet rate = 0.014 (at node 43)
Average accepted packet rate = 0.02525
Maximum accepted packet rate = 0.036 (at node 11)
Minimum injected flit rate = 0.022 (at node 57)
Average injected flit rate = 0.0500937
Maximum injected flit rate = 0.076 (at node 7)
Minimum accepted flit rate = 0.028 (at node 43)
Average accepted flit rate = 0.0505
Maximum accepted flit rate = 0.073 (at node 11)
Average injected packet length = 1.99875
Average accepted packet length = 2
Total in-flight flits = 339 (329 measured)
latency change    = 0.726216
throughput change = 0.0215631
latency change    = 0.393601
throughput change = 0.0761139
Average latency for class 0 exceeded 500 cycles. Aborting simulation.
Too many sample periods needed to converge
Simulation unstable, ending ...
Total run time 3.53875
