BEGIN Configuration File: ./examples/project_inputs/config-iqevc_tp-uniform_c1ir-0.05_c0ir-0.07_prio-select
//
// EVC Router Config File -         
//
// Jason Deng, Mike Wang        
//        

//
// Flow control
//

num_vcs     = 5;
vc_buf_size = 6;

wait_for_tail_credit = 0;

vc_allocator = select;
sw_allocator = select;
alloc_iters  = 2;

credit_delay   = 2;
routing_delay  = 1;
vc_alloc_delay = 1;
sw_alloc_delay = 1;
st_final_delay = 1;

input_speedup     = 1;
output_speedup    = 1;
internal_speedup  = 1.0;

//
// Traffic
//

sim_type = latency;

warmup_periods = 3;
sample_period  = 1000;
sim_count = 1;

//
//topoogy
//

topology = mesh;
k  = 8;
n  = 2;

//
// Routing
//

router = iqevc;
routing_function = dor;

packet_size = 2;
use_read_write = 0;

traffic  = uniform;
injection_rate = {0.07,0.05};
injection_rate_uses_flits = 1;

classes = 2;
class_priority = {0,1};
priority = class;

noq = 0;
hold_switch_for_packet = 0;
vc_prioritize_empty = 0;

//
// express virtual channel settings
//

evc = 1;
num_evcs = 1;
evc_prioritized_class = 1;
selective_vc_request = 1;
hold_switch_for_evc_packet = 1;
evc_next_route = 0;

END Configuration File: ./examples/project_inputs/config-iqevc_tp-uniform_c1ir-0.05_c0ir-0.07_prio-select
0
Class 0:
Minimum packet latency = 8
Average packet latency = 35.1298
Maximum packet latency = 82
Minimum network latency = 8
Average network latency = 34.9827
Maximum network latency = 82
Slowest packet = 1772
Minimum flit latency = 7
Average flit latency = 33.7713
Maximum flit latency = 81
Slowest flit = 3544
Minimum fragmentation = 0
Average fragmentation = 0.362642
Maximum fragmentation = 8
Minimum injected packet rate = 0.021 (at node 47)
Average injected packet rate = 0.0353906
Maximum injected packet rate = 0.048 (at node 58)
Minimum accepted packet rate = 0.023 (at node 62)
Average accepted packet rate = 0.0342969
Maximum accepted packet rate = 0.044 (at node 47)
Minimum injected flit rate = 0.042 (at node 47)
Average injected flit rate = 0.0707344
Maximum injected flit rate = 0.096 (at node 58)
Minimum accepted flit rate = 0.046 (at node 62)
Average accepted flit rate = 0.0685937
Maximum accepted flit rate = 0.088 (at node 47)
Average injected packet length = 1.99868
Average accepted packet length = 2
Total in-flight flits = 140 (0 measured)
Class 1:
Minimum packet latency = 8
Average packet latency = 35.1469
Maximum packet latency = 88
Minimum network latency = 8
Average network latency = 35.1111
Maximum network latency = 88
Slowest packet = 1982
Minimum flit latency = 7
Average flit latency = 34.1072
Maximum flit latency = 87
Slowest flit = 3964
Minimum fragmentation = 0
Average fragmentation = 0
Maximum fragmentation = 0
Minimum injected packet rate = 0.017 (at node 3)
Average injected packet rate = 0.0252969
Maximum injected packet rate = 0.039 (at node 28)
Minimum accepted packet rate = 0.015 (at node 1)
Average accepted packet rate = 0.0244688
Maximum accepted packet rate = 0.033 (at node 24)
Minimum injected flit rate = 0.034 (at node 3)
Average injected flit rate = 0.0505781
Maximum injected flit rate = 0.078 (at node 28)
Minimum accepted flit rate = 0.03 (at node 1)
Average accepted flit rate = 0.0489531
Maximum accepted flit rate = 0.066 (at node 24)
Average injected packet length = 1.99938
Average accepted packet length = 2.00064
Total in-flight flits = 105 (0 measured)
latency change    = 1
throughput change = 1
latency change    = 1
throughput change = 1
0
Class 0:
Minimum packet latency = 8
Average packet latency = 35.3297
Maximum packet latency = 82
Minimum network latency = 8
Average network latency = 35.1868
Maximum network latency = 82
Slowest packet = 1772
Minimum flit latency = 7
Average flit latency = 33.9796
Maximum flit latency = 81
Slowest flit = 3544
Minimum fragmentation = 0
Average fragmentation = 0.362551
Maximum fragmentation = 8
Minimum injected packet rate = 0.024 (at node 12)
Average injected packet rate = 0.0352031
Maximum injected packet rate = 0.0485 (at node 2)
Minimum accepted packet rate = 0.026 (at node 30)
Average accepted packet rate = 0.0346719
Maximum accepted packet rate = 0.046 (at node 14)
Minimum injected flit rate = 0.048 (at node 12)
Average injected flit rate = 0.0703672
Maximum injected flit rate = 0.097 (at node 2)
Minimum accepted flit rate = 0.052 (at node 30)
Average accepted flit rate = 0.069375
Maximum accepted flit rate = 0.092 (at node 14)
Average injected packet length = 1.99889
Average accepted packet length = 2.0009
Total in-flight flits = 132 (0 measured)
Class 1:
Minimum packet latency = 8
Average packet latency = 35.0861
Maximum packet latency = 88
Minimum network latency = 8
Average network latency = 35.0484
Maximum network latency = 88
Slowest packet = 1982
Minimum flit latency = 7
Average flit latency = 34.0484
Maximum flit latency = 87
Slowest flit = 3964
Minimum fragmentation = 0
Average fragmentation = 0
Maximum fragmentation = 0
Minimum injected packet rate = 0.02 (at node 25)
Average injected packet rate = 0.0250703
Maximum injected packet rate = 0.0315 (at node 28)
Minimum accepted packet rate = 0.017 (at node 21)
Average accepted packet rate = 0.0246719
Maximum accepted packet rate = 0.0335 (at node 24)
Minimum injected flit rate = 0.04 (at node 25)
Average injected flit rate = 0.0501406
Maximum injected flit rate = 0.063 (at node 28)
Minimum accepted flit rate = 0.034 (at node 21)
Average accepted flit rate = 0.0493437
Maximum accepted flit rate = 0.067 (at node 24)
Average injected packet length = 2
Average accepted packet length = 2
Total in-flight flits = 102 (0 measured)
latency change    = 0.00565566
throughput change = 0.0112613
latency change    = 0.00173118
throughput change = 0.0079164
0
Class 0:
Minimum packet latency = 8
Average packet latency = 35.6778
Maximum packet latency = 83
Minimum network latency = 8
Average network latency = 35.5648
Maximum network latency = 83
Slowest packet = 8826
Minimum flit latency = 7
Average flit latency = 34.3454
Maximum flit latency = 82
Slowest flit = 17652
Minimum fragmentation = 0
Average fragmentation = 0.386353
Maximum fragmentation = 11
Minimum injected packet rate = 0.019 (at node 49)
Average injected packet rate = 0.0349219
Maximum injected packet rate = 0.052 (at node 1)
Minimum accepted packet rate = 0.022 (at node 22)
Average accepted packet rate = 0.0345781
Maximum accepted packet rate = 0.05 (at node 19)
Minimum injected flit rate = 0.038 (at node 49)
Average injected flit rate = 0.0699219
Maximum injected flit rate = 0.104 (at node 1)
Minimum accepted flit rate = 0.044 (at node 22)
Average accepted flit rate = 0.069125
Maximum accepted flit rate = 0.1 (at node 19)
Average injected packet length = 2.00224
Average accepted packet length = 1.9991
Total in-flight flits = 178 (0 measured)
Class 1:
Minimum packet latency = 8
Average packet latency = 34.9948
Maximum packet latency = 81
Minimum network latency = 8
Average network latency = 34.9689
Maximum network latency = 81
Slowest packet = 8574
Minimum flit latency = 7
Average flit latency = 33.9683
Maximum flit latency = 80
Slowest flit = 17148
Minimum fragmentation = 0
Average fragmentation = 0
Maximum fragmentation = 0
Minimum injected packet rate = 0.01 (at node 47)
Average injected packet rate = 0.0241406
Maximum injected packet rate = 0.037 (at node 21)
Minimum accepted packet rate = 0.015 (at node 34)
Average accepted packet rate = 0.0240938
Maximum accepted packet rate = 0.037 (at node 18)
Minimum injected flit rate = 0.02 (at node 47)
Average injected flit rate = 0.0482812
Maximum injected flit rate = 0.074 (at node 21)
Minimum accepted flit rate = 0.03 (at node 34)
Average accepted flit rate = 0.0482656
Maximum accepted flit rate = 0.074 (at node 18)
Average injected packet length = 2
Average accepted packet length = 2.00324
Total in-flight flits = 103 (0 measured)
latency change    = 0.00975844
throughput change = 0.00361664
latency change    = 0.00260949
throughput change = 0.0223373
Warmed up ...Time used is 3000 cycles
1
Class 0:
Minimum packet latency = 8
Average packet latency = 35.6433
Maximum packet latency = 79
Minimum network latency = 8
Average network latency = 35.5026
Maximum network latency = 79
Slowest packet = 14270
Minimum flit latency = 7
Average flit latency = 34.522
Maximum flit latency = 78
Slowest flit = 28540
Minimum fragmentation = 0
Average fragmentation = 0.349229
Maximum fragmentation = 7
Minimum injected packet rate = 0.019 (at node 5)
Average injected packet rate = 0.0347812
Maximum injected packet rate = 0.048 (at node 2)
Minimum accepted packet rate = 0.025 (at node 16)
Average accepted packet rate = 0.0348281
Maximum accepted packet rate = 0.054 (at node 10)
Minimum injected flit rate = 0.038 (at node 5)
Average injected flit rate = 0.0695
Maximum injected flit rate = 0.096 (at node 2)
Minimum accepted flit rate = 0.05 (at node 16)
Average accepted flit rate = 0.0696875
Maximum accepted flit rate = 0.108 (at node 10)
Average injected packet length = 1.9982
Average accepted packet length = 2.0009
Total in-flight flits = 170 (170 measured)
Class 1:
Minimum packet latency = 8
Average packet latency = 34.8032
Maximum packet latency = 91
Minimum network latency = 8
Average network latency = 34.7721
Maximum network latency = 91
Slowest packet = 12586
Minimum flit latency = 7
Average flit latency = 33.9563
Maximum flit latency = 90
Slowest flit = 25172
Minimum fragmentation = 0
Average fragmentation = 0
Maximum fragmentation = 0
Minimum injected packet rate = 0.017 (at node 39)
Average injected packet rate = 0.025625
Maximum injected packet rate = 0.038 (at node 35)
Minimum accepted packet rate = 0.016 (at node 59)
Average accepted packet rate = 0.0254531
Maximum accepted packet rate = 0.036 (at node 9)
Minimum injected flit rate = 0.034 (at node 39)
Average injected flit rate = 0.0512188
Maximum injected flit rate = 0.076 (at node 35)
Minimum accepted flit rate = 0.031 (at node 59)
Average accepted flit rate = 0.0508281
Maximum accepted flit rate = 0.072 (at node 9)
Average injected packet length = 1.99878
Average accepted packet length = 1.99693
Total in-flight flits = 130 (130 measured)
latency change    = 0.000968532
throughput change = 0.00807175
latency change    = 0.00550632
throughput change = 0.050415
1
Class 0:
Minimum packet latency = 8
Average packet latency = 35.4225
Maximum packet latency = 82
Minimum network latency = 8
Average network latency = 35.2818
Maximum network latency = 80
Slowest packet = 17414
Minimum flit latency = 7
Average flit latency = 34.1808
Maximum flit latency = 79
Slowest flit = 34828
Minimum fragmentation = 0
Average fragmentation = 0.370227
Maximum fragmentation = 11
Minimum injected packet rate = 0.0275 (at node 25)
Average injected packet rate = 0.0349141
Maximum injected packet rate = 0.048 (at node 60)
Minimum accepted packet rate = 0.028 (at node 16)
Average accepted packet rate = 0.0350781
Maximum accepted packet rate = 0.0445 (at node 10)
Minimum injected flit rate = 0.055 (at node 25)
Average injected flit rate = 0.0698125
Maximum injected flit rate = 0.0955 (at node 60)
Minimum accepted flit rate = 0.056 (at node 16)
Average accepted flit rate = 0.0701406
Maximum accepted flit rate = 0.089 (at node 10)
Average injected packet length = 1.99955
Average accepted packet length = 1.99955
Total in-flight flits = 138 (138 measured)
Class 1:
Minimum packet latency = 8
Average packet latency = 35.0585
Maximum packet latency = 91
Minimum network latency = 8
Average network latency = 35.0291
Maximum network latency = 91
Slowest packet = 12586
Minimum flit latency = 7
Average flit latency = 34.1175
Maximum flit latency = 90
Slowest flit = 25172
Minimum fragmentation = 0
Average fragmentation = 0
Maximum fragmentation = 0
Minimum injected packet rate = 0.019 (at node 13)
Average injected packet rate = 0.0253438
Maximum injected packet rate = 0.0325 (at node 47)
Minimum accepted packet rate = 0.0185 (at node 52)
Average accepted packet rate = 0.025375
Maximum accepted packet rate = 0.0315 (at node 44)
Minimum injected flit rate = 0.038 (at node 13)
Average injected flit rate = 0.0506719
Maximum injected flit rate = 0.065 (at node 47)
Minimum accepted flit rate = 0.037 (at node 52)
Average accepted flit rate = 0.0507266
Maximum accepted flit rate = 0.063 (at node 44)
Average injected packet length = 1.99938
Average accepted packet length = 1.99908
Total in-flight flits = 98 (98 measured)
latency change    = 0.00623308
throughput change = 0.00646024
latency change    = 0.00728418
throughput change = 0.00200216
1
Class 0:
Minimum packet latency = 8
Average packet latency = 35.47
Maximum packet latency = 82
Minimum network latency = 8
Average network latency = 35.3365
Maximum network latency = 80
Slowest packet = 17414
Minimum flit latency = 7
Average flit latency = 34.1964
Maximum flit latency = 79
Slowest flit = 34828
Minimum fragmentation = 0
Average fragmentation = 0.376328
Maximum fragmentation = 11
Minimum injected packet rate = 0.0266667 (at node 21)
Average injected packet rate = 0.0352552
Maximum injected packet rate = 0.0463333 (at node 60)
Minimum accepted packet rate = 0.0286667 (at node 16)
Average accepted packet rate = 0.035276
Maximum accepted packet rate = 0.0456667 (at node 29)
Minimum injected flit rate = 0.0533333 (at node 21)
Average injected flit rate = 0.0704948
Maximum injected flit rate = 0.0926667 (at node 60)
Minimum accepted flit rate = 0.0573333 (at node 16)
Average accepted flit rate = 0.0705625
Maximum accepted flit rate = 0.0913333 (at node 29)
Average injected packet length = 1.99956
Average accepted packet length = 2.0003
Total in-flight flits = 168 (168 measured)
Class 1:
Minimum packet latency = 8
Average packet latency = 35.1496
Maximum packet latency = 91
Minimum network latency = 8
Average network latency = 35.1222
Maximum network latency = 91
Slowest packet = 12586
Minimum flit latency = 7
Average flit latency = 34.1797
Maximum flit latency = 90
Slowest flit = 25172
Minimum fragmentation = 0
Average fragmentation = 0
Maximum fragmentation = 0
Minimum injected packet rate = 0.0196667 (at node 54)
Average injected packet rate = 0.0255625
Maximum injected packet rate = 0.0326667 (at node 47)
Minimum accepted packet rate = 0.019 (at node 18)
Average accepted packet rate = 0.0255208
Maximum accepted packet rate = 0.0316667 (at node 10)
Minimum injected flit rate = 0.0393333 (at node 54)
Average injected flit rate = 0.0511198
Maximum injected flit rate = 0.0653333 (at node 47)
Minimum accepted flit rate = 0.038 (at node 18)
Average accepted flit rate = 0.0510156
Maximum accepted flit rate = 0.063 (at node 10)
Average injected packet length = 1.9998
Average accepted packet length = 1.99898
Total in-flight flits = 124 (124 measured)
latency change    = 0.00133912
throughput change = 0.00597874
latency change    = 0.00259066
throughput change = 0.00566616
1
Class 0:
Minimum packet latency = 8
Average packet latency = 35.4011
Maximum packet latency = 82
Minimum network latency = 8
Average network latency = 35.2699
Maximum network latency = 80
Slowest packet = 17414
Minimum flit latency = 7
Average flit latency = 34.1131
Maximum flit latency = 79
Slowest flit = 34828
Minimum fragmentation = 0
Average fragmentation = 0.373424
Maximum fragmentation = 11
Minimum injected packet rate = 0.0275 (at node 21)
Average injected packet rate = 0.0353359
Maximum injected packet rate = 0.04375 (at node 60)
Minimum accepted packet rate = 0.0295 (at node 38)
Average accepted packet rate = 0.0353633
Maximum accepted packet rate = 0.0435 (at node 29)
Minimum injected flit rate = 0.055 (at node 21)
Average injected flit rate = 0.0706563
Maximum injected flit rate = 0.0875 (at node 60)
Minimum accepted flit rate = 0.059 (at node 38)
Average accepted flit rate = 0.0707266
Maximum accepted flit rate = 0.087 (at node 29)
Average injected packet length = 1.99956
Average accepted packet length = 2
Total in-flight flits = 164 (164 measured)
Class 1:
Minimum packet latency = 8
Average packet latency = 35.2769
Maximum packet latency = 91
Minimum network latency = 8
Average network latency = 35.2507
Maximum network latency = 91
Slowest packet = 12586
Minimum flit latency = 7
Average flit latency = 34.2939
Maximum flit latency = 90
Slowest flit = 25172
Minimum fragmentation = 0
Average fragmentation = 0
Maximum fragmentation = 0
Minimum injected packet rate = 0.019 (at node 54)
Average injected packet rate = 0.0252422
Maximum injected packet rate = 0.03075 (at node 30)
Minimum accepted packet rate = 0.01925 (at node 18)
Average accepted packet rate = 0.0252344
Maximum accepted packet rate = 0.03175 (at node 10)
Minimum injected flit rate = 0.038 (at node 54)
Average injected flit rate = 0.0504805
Maximum injected flit rate = 0.0615 (at node 30)
Minimum accepted flit rate = 0.0385 (at node 18)
Average accepted flit rate = 0.0504531
Maximum accepted flit rate = 0.06325 (at node 10)
Average injected packet length = 1.99985
Average accepted packet length = 1.99938
Total in-flight flits = 111 (111 measured)
latency change    = 0.00194641
throughput change = 0.00231967
latency change    = 0.00360916
throughput change = 0.011149
Draining all recorded packets ...
Draining remaining packets ...
Time taken is 7123 cycles
====== Traffic class 0 ======
Overall minimum packet latency = 8 (1 samples)
Overall average packet latency = 35.4641 (1 samples)
Overall maximum packet latency = 82 (1 samples)
Overall minimum network latency = 8 (1 samples)
Overall average network latency = 35.3331 (1 samples)
Overall maximum network latency = 80 (1 samples)
Overall minimum flit latency = 7 (1 samples)
Overall average flit latency = 34.1697 (1 samples)
Overall maximum flit latency = 79 (1 samples)
Overall minimum fragmentation = 0 (1 samples)
Overall average fragmentation = 0.374862 (1 samples)
Overall maximum fragmentation = 11 (1 samples)
Overall minimum injected packet rate = 0.0275 (1 samples)
Overall average injected packet rate = 0.0353359 (1 samples)
Overall maximum injected packet rate = 0.04375 (1 samples)
Overall minimum accepted packet rate = 0.0295 (1 samples)
Overall average accepted packet rate = 0.0353633 (1 samples)
Overall maximum accepted packet rate = 0.0435 (1 samples)
Overall minimum injected flit rate = 0.055 (1 samples)
Overall average injected flit rate = 0.0706563 (1 samples)
Overall maximum injected flit rate = 0.0875 (1 samples)
Overall minimum accepted flit rate = 0.059 (1 samples)
Overall average accepted flit rate = 0.0707266 (1 samples)
Overall maximum accepted flit rate = 0.087 (1 samples)
Overall average injected packet size = 1.99956 (1 samples)
Overall average accepted packet size = 2 (1 samples)
Overall average hops = 6.25757 (1 samples)
====== Traffic class 1 ======
Overall minimum packet latency = 8 (1 samples)
Overall average packet latency = 35.3341 (1 samples)
Overall maximum packet latency = 91 (1 samples)
Overall minimum network latency = 8 (1 samples)
Overall average network latency = 35.3076 (1 samples)
Overall maximum network latency = 91 (1 samples)
Overall minimum flit latency = 7 (1 samples)
Overall average flit latency = 34.363 (1 samples)
Overall maximum flit latency = 90 (1 samples)
Overall minimum fragmentation = 0 (1 samples)
Overall average fragmentation = 0 (1 samples)
Overall maximum fragmentation = 0 (1 samples)
Overall minimum injected packet rate = 0.019 (1 samples)
Overall average injected packet rate = 0.0252422 (1 samples)
Overall maximum injected packet rate = 0.03075 (1 samples)
Overall minimum accepted packet rate = 0.01925 (1 samples)
Overall average accepted packet rate = 0.0252344 (1 samples)
Overall maximum accepted packet rate = 0.03175 (1 samples)
Overall minimum injected flit rate = 0.038 (1 samples)
Overall average injected flit rate = 0.0504805 (1 samples)
Overall maximum injected flit rate = 0.0615 (1 samples)
Overall minimum accepted flit rate = 0.0385 (1 samples)
Overall average accepted flit rate = 0.0504531 (1 samples)
Overall maximum accepted flit rate = 0.06325 (1 samples)
Overall average injected packet size = 1.99985 (1 samples)
Overall average accepted packet size = 1.99938 (1 samples)
Overall average hops = 6.23832 (1 samples)
Total run time 4.06457
