BEGIN Configuration File: ./examples/project_inputs/config-iqevc_tp-transpose_c1ir-0.05_c0ir-0.07
//
// EVC Router Config File -         
//
// Jason Deng, Mike Wang        
//        

//
// Flow control
//

num_vcs     = 5;
vc_buf_size = 6;

wait_for_tail_credit = 0;

vc_allocator = select;
sw_allocator = select;
alloc_iters  = 2;

credit_delay   = 2;
routing_delay  = 1;
vc_alloc_delay = 1;
sw_alloc_delay = 1;
st_final_delay = 1;

input_speedup     = 1;
output_speedup    = 1;
internal_speedup  = 1.0;

//
// Traffic
//

sim_type = latency;

warmup_periods = 3;
sample_period  = 1000;
sim_count = 1;

//
//topoogy
//

topology = mesh;
k  = 8;
n  = 2;

//
// Routing
//

router = iqevc;
routing_function = dor;

packet_size = 2;
use_read_write = 0;

traffic  = transpose;
injection_rate = {0.07,0.05};
injection_rate_uses_flits = 1;

classes = 2;
class_priority = {0,1};
priority = class;

noq = 0;
hold_switch_for_packet = 0;
vc_prioritize_empty = 0;

//
// express virtual channel settings
//

evc = 1;
num_evcs = 1;
evc_prioritized_class = 1;
selective_vc_request = 1;
hold_switch_for_evc_packet = 1;
evc_next_route = 1;

END Configuration File: ./examples/project_inputs/config-iqevc_tp-transpose_c1ir-0.05_c0ir-0.07
0
Class 0:
Minimum packet latency = 8
Average packet latency = 38.0682
Maximum packet latency = 191
Minimum network latency = 8
Average network latency = 37.9181
Maximum network latency = 191
Slowest packet = 1079
Minimum flit latency = 7
Average flit latency = 36.4368
Maximum flit latency = 190
Slowest flit = 2158
Minimum fragmentation = 0
Average fragmentation = 0.906679
Maximum fragmentation = 81
Minimum injected packet rate = 0.021 (at node 47)
Average injected packet rate = 0.0353906
Maximum injected packet rate = 0.048 (at node 58)
Minimum accepted packet rate = 0.021 (at node 61)
Average accepted packet rate = 0.0341562
Maximum accepted packet rate = 0.046 (at node 23)
Minimum injected flit rate = 0.042 (at node 47)
Average injected flit rate = 0.0707344
Maximum injected flit rate = 0.096 (at node 58)
Minimum accepted flit rate = 0.042 (at node 61)
Average accepted flit rate = 0.0683594
Maximum accepted flit rate = 0.092 (at node 23)
Average injected packet length = 1.99868
Average accepted packet length = 2.00137
Total in-flight flits = 155 (0 measured)
Class 1:
Minimum packet latency = 8
Average packet latency = 35.8743
Maximum packet latency = 108
Minimum network latency = 8
Average network latency = 35.8385
Maximum network latency = 108
Slowest packet = 1580
Minimum flit latency = 7
Average flit latency = 34.8385
Maximum flit latency = 107
Slowest flit = 3160
Minimum fragmentation = 0
Average fragmentation = 0
Maximum fragmentation = 0
Minimum injected packet rate = 0.017 (at node 3)
Average injected packet rate = 0.0252969
Maximum injected packet rate = 0.039 (at node 28)
Minimum accepted packet rate = 0.015 (at node 5)
Average accepted packet rate = 0.0244844
Maximum accepted packet rate = 0.038 (at node 35)
Minimum injected flit rate = 0.034 (at node 3)
Average injected flit rate = 0.0505781
Maximum injected flit rate = 0.078 (at node 28)
Minimum accepted flit rate = 0.03 (at node 5)
Average accepted flit rate = 0.0489687
Maximum accepted flit rate = 0.076 (at node 35)
Average injected packet length = 1.99938
Average accepted packet length = 2
Total in-flight flits = 104 (0 measured)
latency change    = 1
throughput change = 1
latency change    = 1
throughput change = 1
0
Class 0:
Minimum packet latency = 8
Average packet latency = 38.6948
Maximum packet latency = 202
Minimum network latency = 8
Average network latency = 38.5524
Maximum network latency = 202
Slowest packet = 4569
Minimum flit latency = 7
Average flit latency = 37.0717
Maximum flit latency = 201
Slowest flit = 9138
Minimum fragmentation = 0
Average fragmentation = 0.921498
Maximum fragmentation = 81
Minimum injected packet rate = 0.024 (at node 12)
Average injected packet rate = 0.0352031
Maximum injected packet rate = 0.0485 (at node 2)
Minimum accepted packet rate = 0.023 (at node 33)
Average accepted packet rate = 0.0346328
Maximum accepted packet rate = 0.0475 (at node 16)
Minimum injected flit rate = 0.048 (at node 12)
Average injected flit rate = 0.0703672
Maximum injected flit rate = 0.097 (at node 2)
Minimum accepted flit rate = 0.046 (at node 33)
Average accepted flit rate = 0.0692969
Maximum accepted flit rate = 0.095 (at node 16)
Average injected packet length = 1.99889
Average accepted packet length = 2.0009
Total in-flight flits = 142 (0 measured)
Class 1:
Minimum packet latency = 8
Average packet latency = 36.1287
Maximum packet latency = 108
Minimum network latency = 8
Average network latency = 36.0903
Maximum network latency = 108
Slowest packet = 1580
Minimum flit latency = 7
Average flit latency = 35.0848
Maximum flit latency = 107
Slowest flit = 3160
Minimum fragmentation = 0
Average fragmentation = 0
Maximum fragmentation = 0
Minimum injected packet rate = 0.02 (at node 25)
Average injected packet rate = 0.0250703
Maximum injected packet rate = 0.0315 (at node 28)
Minimum accepted packet rate = 0.02 (at node 11)
Average accepted packet rate = 0.0246484
Maximum accepted packet rate = 0.031 (at node 35)
Minimum injected flit rate = 0.04 (at node 25)
Average injected flit rate = 0.0501406
Maximum injected flit rate = 0.063 (at node 28)
Minimum accepted flit rate = 0.04 (at node 11)
Average accepted flit rate = 0.0493125
Maximum accepted flit rate = 0.062 (at node 35)
Average injected packet length = 2
Average accepted packet length = 2.00063
Total in-flight flits = 106 (0 measured)
latency change    = 0.0161941
throughput change = 0.0135287
latency change    = 0.00704157
throughput change = 0.00697085
0
Class 0:
Minimum packet latency = 8
Average packet latency = 39.0875
Maximum packet latency = 193
Minimum network latency = 8
Average network latency = 38.9739
Maximum network latency = 193
Slowest packet = 7660
Minimum flit latency = 7
Average flit latency = 37.5066
Maximum flit latency = 192
Slowest flit = 15320
Minimum fragmentation = 0
Average fragmentation = 0.846258
Maximum fragmentation = 33
Minimum injected packet rate = 0.019 (at node 49)
Average injected packet rate = 0.0349219
Maximum injected packet rate = 0.052 (at node 1)
Minimum accepted packet rate = 0.02 (at node 14)
Average accepted packet rate = 0.0346562
Maximum accepted packet rate = 0.051 (at node 8)
Minimum injected flit rate = 0.038 (at node 49)
Average injected flit rate = 0.0699219
Maximum injected flit rate = 0.104 (at node 1)
Minimum accepted flit rate = 0.04 (at node 14)
Average accepted flit rate = 0.0693281
Maximum accepted flit rate = 0.102 (at node 8)
Average injected packet length = 2.00224
Average accepted packet length = 2.00045
Total in-flight flits = 175 (0 measured)
Class 1:
Minimum packet latency = 8
Average packet latency = 36.1365
Maximum packet latency = 91
Minimum network latency = 8
Average network latency = 36.1119
Maximum network latency = 91
Slowest packet = 8730
Minimum flit latency = 7
Average flit latency = 35.1271
Maximum flit latency = 90
Slowest flit = 17460
Minimum fragmentation = 0
Average fragmentation = 0
Maximum fragmentation = 0
Minimum injected packet rate = 0.01 (at node 47)
Average injected packet rate = 0.0241406
Maximum injected packet rate = 0.037 (at node 21)
Minimum accepted packet rate = 0.011 (at node 61)
Average accepted packet rate = 0.0241563
Maximum accepted packet rate = 0.036 (at node 42)
Minimum injected flit rate = 0.02 (at node 47)
Average injected flit rate = 0.0482812
Maximum injected flit rate = 0.074 (at node 21)
Minimum accepted flit rate = 0.022 (at node 61)
Average accepted flit rate = 0.0482969
Maximum accepted flit rate = 0.072 (at node 42)
Average injected packet length = 2
Average accepted packet length = 1.99935
Total in-flight flits = 105 (0 measured)
latency change    = 0.0100461
throughput change = 0.000450755
latency change    = 0.000215755
throughput change = 0.0210288
Warmed up ...Time used is 3000 cycles
1
Class 0:
Minimum packet latency = 8
Average packet latency = 36.8184
Maximum packet latency = 120
Minimum network latency = 8
Average network latency = 36.676
Maximum network latency = 119
Slowest packet = 13156
Minimum flit latency = 7
Average flit latency = 35.5949
Maximum flit latency = 118
Slowest flit = 26313
Minimum fragmentation = 0
Average fragmentation = 0.795985
Maximum fragmentation = 59
Minimum injected packet rate = 0.019 (at node 5)
Average injected packet rate = 0.0347812
Maximum injected packet rate = 0.048 (at node 2)
Minimum accepted packet rate = 0.021 (at node 40)
Average accepted packet rate = 0.034875
Maximum accepted packet rate = 0.046 (at node 16)
Minimum injected flit rate = 0.038 (at node 5)
Average injected flit rate = 0.0695
Maximum injected flit rate = 0.096 (at node 2)
Minimum accepted flit rate = 0.042 (at node 40)
Average accepted flit rate = 0.0697344
Maximum accepted flit rate = 0.092 (at node 16)
Average injected packet length = 1.9982
Average accepted packet length = 1.99955
Total in-flight flits = 164 (164 measured)
Class 1:
Minimum packet latency = 8
Average packet latency = 36.0904
Maximum packet latency = 99
Minimum network latency = 8
Average network latency = 36.0595
Maximum network latency = 98
Slowest packet = 12645
Minimum flit latency = 7
Average flit latency = 35.4878
Maximum flit latency = 97
Slowest flit = 25290
Minimum fragmentation = 0
Average fragmentation = 0
Maximum fragmentation = 0
Minimum injected packet rate = 0.017 (at node 39)
Average injected packet rate = 0.025625
Maximum injected packet rate = 0.038 (at node 35)
Minimum accepted packet rate = 0.017 (at node 54)
Average accepted packet rate = 0.0255312
Maximum accepted packet rate = 0.038 (at node 28)
Minimum injected flit rate = 0.034 (at node 39)
Average injected flit rate = 0.0512188
Maximum injected flit rate = 0.076 (at node 35)
Minimum accepted flit rate = 0.034 (at node 54)
Average accepted flit rate = 0.0510625
Maximum accepted flit rate = 0.076 (at node 28)
Average injected packet length = 1.99878
Average accepted packet length = 2
Total in-flight flits = 117 (117 measured)
latency change    = 0.0616288
throughput change = 0.00582568
latency change    = 0.00127547
throughput change = 0.0541616
1
Class 0:
Minimum packet latency = 8
Average packet latency = 37.1807
Maximum packet latency = 163
Minimum network latency = 8
Average network latency = 37.0428
Maximum network latency = 163
Slowest packet = 18437
Minimum flit latency = 5
Average flit latency = 35.7858
Maximum flit latency = 162
Slowest flit = 36874
Minimum fragmentation = 0
Average fragmentation = 0.795356
Maximum fragmentation = 59
Minimum injected packet rate = 0.0275 (at node 25)
Average injected packet rate = 0.0349141
Maximum injected packet rate = 0.048 (at node 60)
Minimum accepted packet rate = 0.027 (at node 11)
Average accepted packet rate = 0.0350234
Maximum accepted packet rate = 0.0475 (at node 39)
Minimum injected flit rate = 0.055 (at node 25)
Average injected flit rate = 0.0698125
Maximum injected flit rate = 0.0955 (at node 60)
Minimum accepted flit rate = 0.054 (at node 11)
Average accepted flit rate = 0.0700156
Maximum accepted flit rate = 0.0945 (at node 39)
Average injected packet length = 1.99955
Average accepted packet length = 1.99911
Total in-flight flits = 151 (151 measured)
Class 1:
Minimum packet latency = 8
Average packet latency = 36.0236
Maximum packet latency = 111
Minimum network latency = 8
Average network latency = 35.9943
Maximum network latency = 111
Slowest packet = 18768
Minimum flit latency = 7
Average flit latency = 35.2115
Maximum flit latency = 110
Slowest flit = 37536
Minimum fragmentation = 0
Average fragmentation = 0
Maximum fragmentation = 0
Minimum injected packet rate = 0.019 (at node 13)
Average injected packet rate = 0.0253438
Maximum injected packet rate = 0.0325 (at node 47)
Minimum accepted packet rate = 0.0185 (at node 41)
Average accepted packet rate = 0.0252734
Maximum accepted packet rate = 0.0325 (at node 27)
Minimum injected flit rate = 0.038 (at node 13)
Average injected flit rate = 0.0506719
Maximum injected flit rate = 0.065 (at node 47)
Minimum accepted flit rate = 0.037 (at node 41)
Average accepted flit rate = 0.0505391
Maximum accepted flit rate = 0.065 (at node 27)
Average injected packet length = 1.99938
Average accepted packet length = 1.99969
Total in-flight flits = 124 (124 measured)
latency change    = 0.00974558
throughput change = 0.00401696
latency change    = 0.00185653
throughput change = 0.0103571
1
Class 0:
Minimum packet latency = 8
Average packet latency = 37.5996
Maximum packet latency = 163
Minimum network latency = 8
Average network latency = 37.4668
Maximum network latency = 163
Slowest packet = 18437
Minimum flit latency = 5
Average flit latency = 36.1331
Maximum flit latency = 162
Slowest flit = 36874
Minimum fragmentation = 0
Average fragmentation = 0.825064
Maximum fragmentation = 59
Minimum injected packet rate = 0.0266667 (at node 21)
Average injected packet rate = 0.0352552
Maximum injected packet rate = 0.0463333 (at node 60)
Minimum accepted packet rate = 0.0266667 (at node 25)
Average accepted packet rate = 0.0352135
Maximum accepted packet rate = 0.0456667 (at node 39)
Minimum injected flit rate = 0.0533333 (at node 21)
Average injected flit rate = 0.0704948
Maximum injected flit rate = 0.0926667 (at node 60)
Minimum accepted flit rate = 0.0533333 (at node 25)
Average accepted flit rate = 0.0704219
Maximum accepted flit rate = 0.091 (at node 39)
Average injected packet length = 1.99956
Average accepted packet length = 1.99985
Total in-flight flits = 192 (192 measured)
Class 1:
Minimum packet latency = 8
Average packet latency = 36.6001
Maximum packet latency = 116
Minimum network latency = 8
Average network latency = 36.5726
Maximum network latency = 116
Slowest packet = 22248
Minimum flit latency = 7
Average flit latency = 35.7084
Maximum flit latency = 115
Slowest flit = 44496
Minimum fragmentation = 0
Average fragmentation = 0
Maximum fragmentation = 0
Minimum injected packet rate = 0.0196667 (at node 54)
Average injected packet rate = 0.0255625
Maximum injected packet rate = 0.0326667 (at node 47)
Minimum accepted packet rate = 0.0196667 (at node 41)
Average accepted packet rate = 0.0255156
Maximum accepted packet rate = 0.032 (at node 61)
Minimum injected flit rate = 0.0393333 (at node 54)
Average injected flit rate = 0.0511198
Maximum injected flit rate = 0.0653333 (at node 47)
Minimum accepted flit rate = 0.0393333 (at node 41)
Average accepted flit rate = 0.0510417
Maximum accepted flit rate = 0.064 (at node 61)
Average injected packet length = 1.9998
Average accepted packet length = 2.00041
Total in-flight flits = 121 (121 measured)
latency change    = 0.0111402
throughput change = 0.0057688
latency change    = 0.0157517
throughput change = 0.00984694
1
Class 0:
Minimum packet latency = 8
Average packet latency = 37.9573
Maximum packet latency = 177
Minimum network latency = 8
Average network latency = 37.8258
Maximum network latency = 177
Slowest packet = 24791
Minimum flit latency = 5
Average flit latency = 36.4551
Maximum flit latency = 176
Slowest flit = 49582
Minimum fragmentation = 0
Average fragmentation = 0.84441
Maximum fragmentation = 59
Minimum injected packet rate = 0.0275 (at node 21)
Average injected packet rate = 0.0353359
Maximum injected packet rate = 0.04375 (at node 60)
Minimum accepted packet rate = 0.0275 (at node 42)
Average accepted packet rate = 0.0353242
Maximum accepted packet rate = 0.044 (at node 39)
Minimum injected flit rate = 0.055 (at node 21)
Average injected flit rate = 0.0706563
Maximum injected flit rate = 0.0875 (at node 60)
Minimum accepted flit rate = 0.055 (at node 42)
Average accepted flit rate = 0.0706445
Maximum accepted flit rate = 0.08775 (at node 39)
Average injected packet length = 1.99956
Average accepted packet length = 1.99989
Total in-flight flits = 182 (182 measured)
Class 1:
Minimum packet latency = 8
Average packet latency = 36.709
Maximum packet latency = 116
Minimum network latency = 8
Average network latency = 36.6824
Maximum network latency = 116
Slowest packet = 22248
Minimum flit latency = 7
Average flit latency = 35.7857
Maximum flit latency = 115
Slowest flit = 44496
Minimum fragmentation = 0
Average fragmentation = 0
Maximum fragmentation = 0
Minimum injected packet rate = 0.019 (at node 54)
Average injected packet rate = 0.0252422
Maximum injected packet rate = 0.03075 (at node 30)
Minimum accepted packet rate = 0.01875 (at node 54)
Average accepted packet rate = 0.0252148
Maximum accepted packet rate = 0.031 (at node 51)
Minimum injected flit rate = 0.038 (at node 54)
Average injected flit rate = 0.0504805
Maximum injected flit rate = 0.0615 (at node 30)
Minimum accepted flit rate = 0.0375 (at node 54)
Average accepted flit rate = 0.0504258
Maximum accepted flit rate = 0.062 (at node 51)
Average injected packet length = 1.99985
Average accepted packet length = 1.99985
Total in-flight flits = 120 (120 measured)
latency change    = 0.00942433
throughput change = 0.00315178
latency change    = 0.00296697
throughput change = 0.0122137
Draining all recorded packets ...
Draining remaining packets ...
Time taken is 7152 cycles
====== Traffic class 0 ======
Overall minimum packet latency = 8 (1 samples)
Overall average packet latency = 38.1017 (1 samples)
Overall maximum packet latency = 177 (1 samples)
Overall minimum network latency = 8 (1 samples)
Overall average network latency = 37.9707 (1 samples)
Overall maximum network latency = 177 (1 samples)
Overall minimum flit latency = 5 (1 samples)
Overall average flit latency = 36.5747 (1 samples)
Overall maximum flit latency = 176 (1 samples)
Overall minimum fragmentation = 0 (1 samples)
Overall average fragmentation = 0.851868 (1 samples)
Overall maximum fragmentation = 59 (1 samples)
Overall minimum injected packet rate = 0.0275 (1 samples)
Overall average injected packet rate = 0.0353359 (1 samples)
Overall maximum injected packet rate = 0.04375 (1 samples)
Overall minimum accepted packet rate = 0.0275 (1 samples)
Overall average accepted packet rate = 0.0353242 (1 samples)
Overall maximum accepted packet rate = 0.044 (1 samples)
Overall minimum injected flit rate = 0.055 (1 samples)
Overall average injected flit rate = 0.0706563 (1 samples)
Overall maximum injected flit rate = 0.0875 (1 samples)
Overall minimum accepted flit rate = 0.055 (1 samples)
Overall average accepted flit rate = 0.0706445 (1 samples)
Overall maximum accepted flit rate = 0.08775 (1 samples)
Overall average injected packet size = 1.99956 (1 samples)
Overall average accepted packet size = 1.99989 (1 samples)
Overall average hops = 6.29096 (1 samples)
====== Traffic class 1 ======
Overall minimum packet latency = 8 (1 samples)
Overall average packet latency = 36.8398 (1 samples)
Overall maximum packet latency = 116 (1 samples)
Overall minimum network latency = 8 (1 samples)
Overall average network latency = 36.8134 (1 samples)
Overall maximum network latency = 116 (1 samples)
Overall minimum flit latency = 7 (1 samples)
Overall average flit latency = 35.8846 (1 samples)
Overall maximum flit latency = 115 (1 samples)
Overall minimum fragmentation = 0 (1 samples)
Overall average fragmentation = 0 (1 samples)
Overall maximum fragmentation = 0 (1 samples)
Overall minimum injected packet rate = 0.019 (1 samples)
Overall average injected packet rate = 0.0252422 (1 samples)
Overall maximum injected packet rate = 0.03075 (1 samples)
Overall minimum accepted packet rate = 0.01875 (1 samples)
Overall average accepted packet rate = 0.0252148 (1 samples)
Overall maximum accepted packet rate = 0.031 (1 samples)
Overall minimum injected flit rate = 0.038 (1 samples)
Overall average injected flit rate = 0.0504805 (1 samples)
Overall maximum injected flit rate = 0.0615 (1 samples)
Overall minimum accepted flit rate = 0.0375 (1 samples)
Overall average accepted flit rate = 0.0504258 (1 samples)
Overall maximum accepted flit rate = 0.062 (1 samples)
Overall average injected packet size = 1.99985 (1 samples)
Overall average accepted packet size = 1.99985 (1 samples)
Overall average hops = 6.32745 (1 samples)
Total run time 11.5534
