BEGIN Configuration File: ./examples/project_inputs/config-iqevc_tp-uniform_c1ir-0.05_c0ir-0.11
//
// EVC Router Config File -         
//
// Jason Deng, Mike Wang        
//        

//
// Flow control
//

num_vcs     = 5;
vc_buf_size = 6;

wait_for_tail_credit = 0;

vc_allocator = select;
sw_allocator = select;
alloc_iters  = 2;

credit_delay   = 2;
routing_delay  = 1;
vc_alloc_delay = 1;
sw_alloc_delay = 1;
st_final_delay = 1;

input_speedup     = 1;
output_speedup    = 1;
internal_speedup  = 1.0;

//
// Traffic
//

sim_type = latency;

warmup_periods = 3;
sample_period  = 1000;
sim_count = 1;

//
//topoogy
//

topology = mesh;
k  = 8;
n  = 2;

//
// Routing
//

router = iqevc;
routing_function = dor;

packet_size = 2;
use_read_write = 0;

traffic  = uniform;
injection_rate = {0.11,0.05};
injection_rate_uses_flits = 1;

classes = 2;
class_priority = {0,1};
priority = class;

noq = 0;
hold_switch_for_packet = 0;
vc_prioritize_empty = 0;

//
// express virtual channel settings
//

evc = 1;
num_evcs = 1;
evc_prioritized_class = 1;
selective_vc_request = 1;
hold_switch_for_evc_packet = 1;
evc_next_route = 1;

END Configuration File: ./examples/project_inputs/config-iqevc_tp-uniform_c1ir-0.05_c0ir-0.11
0
Class 0:
Minimum packet latency = 8
Average packet latency = 35.7523
Maximum packet latency = 80
Minimum network latency = 8
Average network latency = 35.5782
Maximum network latency = 80
Slowest packet = 1032
Minimum flit latency = 7
Average flit latency = 34.2929
Maximum flit latency = 79
Slowest flit = 2064
Minimum fragmentation = 0
Average fragmentation = 0.536506
Maximum fragmentation = 12
Minimum injected packet rate = 0.04 (at node 9)
Average injected packet rate = 0.0546406
Maximum injected packet rate = 0.072 (at node 32)
Minimum accepted packet rate = 0.038 (at node 30)
Average accepted packet rate = 0.0528594
Maximum accepted packet rate = 0.071 (at node 47)
Minimum injected flit rate = 0.08 (at node 9)
Average injected flit rate = 0.109234
Maximum injected flit rate = 0.144 (at node 32)
Minimum accepted flit rate = 0.076 (at node 30)
Average accepted flit rate = 0.105828
Maximum accepted flit rate = 0.142 (at node 47)
Average injected packet length = 1.99914
Average accepted packet length = 2.00207
Total in-flight flits = 221 (0 measured)
Class 1:
Minimum packet latency = 8
Average packet latency = 35.1288
Maximum packet latency = 78
Minimum network latency = 8
Average network latency = 35.0968
Maximum network latency = 78
Slowest packet = 1635
Minimum flit latency = 7
Average flit latency = 34.0968
Maximum flit latency = 77
Slowest flit = 3270
Minimum fragmentation = 0
Average fragmentation = 0
Maximum fragmentation = 0
Minimum injected packet rate = 0.012 (at node 61)
Average injected packet rate = 0.0246094
Maximum injected packet rate = 0.035 (at node 6)
Minimum accepted packet rate = 0.01 (at node 23)
Average accepted packet rate = 0.0238906
Maximum accepted packet rate = 0.037 (at node 5)
Minimum injected flit rate = 0.024 (at node 61)
Average injected flit rate = 0.0492031
Maximum injected flit rate = 0.07 (at node 6)
Minimum accepted flit rate = 0.02 (at node 23)
Average accepted flit rate = 0.0477812
Maximum accepted flit rate = 0.074 (at node 5)
Average injected packet length = 1.99937
Average accepted packet length = 2
Total in-flight flits = 92 (0 measured)
latency change    = 1
throughput change = 1
latency change    = 1
throughput change = 1
0
Class 0:
Minimum packet latency = 8
Average packet latency = 35.7228
Maximum packet latency = 85
Minimum network latency = 8
Average network latency = 35.5514
Maximum network latency = 85
Slowest packet = 7815
Minimum flit latency = 7
Average flit latency = 34.2568
Maximum flit latency = 84
Slowest flit = 15630
Minimum fragmentation = 0
Average fragmentation = 0.536336
Maximum fragmentation = 12
Minimum injected packet rate = 0.045 (at node 42)
Average injected packet rate = 0.0552187
Maximum injected packet rate = 0.065 (at node 58)
Minimum accepted packet rate = 0.0435 (at node 15)
Average accepted packet rate = 0.0542891
Maximum accepted packet rate = 0.0675 (at node 14)
Minimum injected flit rate = 0.09 (at node 42)
Average injected flit rate = 0.110398
Maximum injected flit rate = 0.13 (at node 58)
Minimum accepted flit rate = 0.087 (at node 15)
Average accepted flit rate = 0.108625
Maximum accepted flit rate = 0.135 (at node 14)
Average injected packet length = 1.99929
Average accepted packet length = 2.00086
Total in-flight flits = 234 (0 measured)
Class 1:
Minimum packet latency = 8
Average packet latency = 35.4039
Maximum packet latency = 89
Minimum network latency = 8
Average network latency = 35.3717
Maximum network latency = 89
Slowest packet = 6406
Minimum flit latency = 7
Average flit latency = 34.3767
Maximum flit latency = 88
Slowest flit = 12812
Minimum fragmentation = 0
Average fragmentation = 0
Maximum fragmentation = 0
Minimum injected packet rate = 0.0185 (at node 14)
Average injected packet rate = 0.0252031
Maximum injected packet rate = 0.0355 (at node 6)
Minimum accepted packet rate = 0.016 (at node 23)
Average accepted packet rate = 0.0247578
Maximum accepted packet rate = 0.0365 (at node 3)
Minimum injected flit rate = 0.037 (at node 14)
Average injected flit rate = 0.0503906
Maximum injected flit rate = 0.071 (at node 6)
Minimum accepted flit rate = 0.032 (at node 23)
Average accepted flit rate = 0.0495234
Maximum accepted flit rate = 0.073 (at node 3)
Average injected packet length = 1.99938
Average accepted packet length = 2.00032
Total in-flight flits = 113 (0 measured)
latency change    = 0.000824488
throughput change = 0.025748
latency change    = 0.0077695
throughput change = 0.0351791
0
Class 0:
Minimum packet latency = 8
Average packet latency = 35.921
Maximum packet latency = 80
Minimum network latency = 8
Average network latency = 35.7727
Maximum network latency = 80
Slowest packet = 12855
Minimum flit latency = 7
Average flit latency = 34.4696
Maximum flit latency = 79
Slowest flit = 25710
Minimum fragmentation = 0
Average fragmentation = 0.571027
Maximum fragmentation = 19
Minimum injected packet rate = 0.039 (at node 50)
Average injected packet rate = 0.0554219
Maximum injected packet rate = 0.067 (at node 36)
Minimum accepted packet rate = 0.032 (at node 16)
Average accepted packet rate = 0.0555469
Maximum accepted packet rate = 0.071 (at node 10)
Minimum injected flit rate = 0.078 (at node 50)
Average injected flit rate = 0.110875
Maximum injected flit rate = 0.134 (at node 36)
Minimum accepted flit rate = 0.064 (at node 16)
Average accepted flit rate = 0.111031
Maximum accepted flit rate = 0.142 (at node 10)
Average injected packet length = 2.00056
Average accepted packet length = 1.99887
Total in-flight flits = 220 (0 measured)
Class 1:
Minimum packet latency = 8
Average packet latency = 35.9626
Maximum packet latency = 80
Minimum network latency = 8
Average network latency = 35.9404
Maximum network latency = 80
Slowest packet = 14375
Minimum flit latency = 7
Average flit latency = 34.9264
Maximum flit latency = 79
Slowest flit = 28750
Minimum fragmentation = 0
Average fragmentation = 0
Maximum fragmentation = 0
Minimum injected packet rate = 0.013 (at node 0)
Average injected packet rate = 0.024625
Maximum injected packet rate = 0.034 (at node 19)
Minimum accepted packet rate = 0.013 (at node 38)
Average accepted packet rate = 0.0246406
Maximum accepted packet rate = 0.036 (at node 0)
Minimum injected flit rate = 0.026 (at node 0)
Average injected flit rate = 0.0492656
Maximum injected flit rate = 0.068 (at node 19)
Minimum accepted flit rate = 0.026 (at node 38)
Average accepted flit rate = 0.0492812
Maximum accepted flit rate = 0.072 (at node 0)
Average injected packet length = 2.00063
Average accepted packet length = 2
Total in-flight flits = 111 (0 measured)
latency change    = 0.0055154
throughput change = 0.0216718
latency change    = 0.0155349
throughput change = 0.00491439
Warmed up ...Time used is 3000 cycles
1
Class 0:
Minimum packet latency = 8
Average packet latency = 34.9356
Maximum packet latency = 81
Minimum network latency = 8
Average network latency = 34.7626
Maximum network latency = 81
Slowest packet = 18220
Minimum flit latency = 7
Average flit latency = 33.6787
Maximum flit latency = 84
Slowest flit = 30299
Minimum fragmentation = 0
Average fragmentation = 0.51751
Maximum fragmentation = 11
Minimum injected packet rate = 0.041 (at node 3)
Average injected packet rate = 0.0542813
Maximum injected packet rate = 0.074 (at node 32)
Minimum accepted packet rate = 0.038 (at node 34)
Average accepted packet rate = 0.0539375
Maximum accepted packet rate = 0.068 (at node 44)
Minimum injected flit rate = 0.082 (at node 3)
Average injected flit rate = 0.108484
Maximum injected flit rate = 0.148 (at node 32)
Minimum accepted flit rate = 0.076 (at node 34)
Average accepted flit rate = 0.107922
Maximum accepted flit rate = 0.136 (at node 44)
Average injected packet length = 1.99856
Average accepted packet length = 2.00087
Total in-flight flits = 261 (261 measured)
Class 1:
Minimum packet latency = 8
Average packet latency = 35.3032
Maximum packet latency = 79
Minimum network latency = 8
Average network latency = 35.2766
Maximum network latency = 79
Slowest packet = 17315
Minimum flit latency = 7
Average flit latency = 34.4477
Maximum flit latency = 78
Slowest flit = 34630
Minimum fragmentation = 0
Average fragmentation = 0
Maximum fragmentation = 0
Minimum injected packet rate = 0.013 (at node 55)
Average injected packet rate = 0.0250313
Maximum injected packet rate = 0.038 (at node 15)
Minimum accepted packet rate = 0.012 (at node 12)
Average accepted packet rate = 0.0249375
Maximum accepted packet rate = 0.035 (at node 3)
Minimum injected flit rate = 0.026 (at node 55)
Average injected flit rate = 0.0500625
Maximum injected flit rate = 0.076 (at node 15)
Minimum accepted flit rate = 0.024 (at node 12)
Average accepted flit rate = 0.049875
Maximum accepted flit rate = 0.07 (at node 3)
Average injected packet length = 2
Average accepted packet length = 2
Total in-flight flits = 123 (123 measured)
latency change    = 0.0282035
throughput change = 0.0288114
latency change    = 0.0186765
throughput change = 0.0119048
1
Class 0:
Minimum packet latency = 8
Average packet latency = 35.4181
Maximum packet latency = 83
Minimum network latency = 8
Average network latency = 35.2482
Maximum network latency = 83
Slowest packet = 20794
Minimum flit latency = 7
Average flit latency = 34.0501
Maximum flit latency = 84
Slowest flit = 30299
Minimum fragmentation = 0
Average fragmentation = 0.536476
Maximum fragmentation = 11
Minimum injected packet rate = 0.045 (at node 12)
Average injected packet rate = 0.0548125
Maximum injected packet rate = 0.0685 (at node 32)
Minimum accepted packet rate = 0.0445 (at node 63)
Average accepted packet rate = 0.0547344
Maximum accepted packet rate = 0.069 (at node 51)
Minimum injected flit rate = 0.09 (at node 12)
Average injected flit rate = 0.109617
Maximum injected flit rate = 0.137 (at node 32)
Minimum accepted flit rate = 0.089 (at node 63)
Average accepted flit rate = 0.109484
Maximum accepted flit rate = 0.138 (at node 51)
Average injected packet length = 1.99986
Average accepted packet length = 2.00029
Total in-flight flits = 238 (238 measured)
Class 1:
Minimum packet latency = 8
Average packet latency = 35.3426
Maximum packet latency = 79
Minimum network latency = 8
Average network latency = 35.3155
Maximum network latency = 79
Slowest packet = 17315
Minimum flit latency = 7
Average flit latency = 34.3983
Maximum flit latency = 78
Slowest flit = 34630
Minimum fragmentation = 0
Average fragmentation = 0
Maximum fragmentation = 0
Minimum injected packet rate = 0.017 (at node 55)
Average injected packet rate = 0.0248984
Maximum injected packet rate = 0.0315 (at node 15)
Minimum accepted packet rate = 0.018 (at node 16)
Average accepted packet rate = 0.0249297
Maximum accepted packet rate = 0.0325 (at node 53)
Minimum injected flit rate = 0.034 (at node 55)
Average injected flit rate = 0.0497891
Maximum injected flit rate = 0.063 (at node 15)
Minimum accepted flit rate = 0.036 (at node 16)
Average accepted flit rate = 0.0498594
Maximum accepted flit rate = 0.065 (at node 53)
Average injected packet length = 1.99969
Average accepted packet length = 2
Total in-flight flits = 103 (103 measured)
latency change    = 0.0136224
throughput change = 0.0142714
latency change    = 0.00111302
throughput change = 0.000313381
1
Class 0:
Minimum packet latency = 8
Average packet latency = 35.5961
Maximum packet latency = 87
Minimum network latency = 8
Average network latency = 35.4252
Maximum network latency = 87
Slowest packet = 30030
Minimum flit latency = 7
Average flit latency = 34.1801
Maximum flit latency = 86
Slowest flit = 60060
Minimum fragmentation = 0
Average fragmentation = 0.552075
Maximum fragmentation = 11
Minimum injected packet rate = 0.0443333 (at node 10)
Average injected packet rate = 0.0549219
Maximum injected packet rate = 0.0663333 (at node 61)
Minimum accepted packet rate = 0.0466667 (at node 43)
Average accepted packet rate = 0.0547865
Maximum accepted packet rate = 0.064 (at node 54)
Minimum injected flit rate = 0.0886667 (at node 10)
Average injected flit rate = 0.109833
Maximum injected flit rate = 0.132667 (at node 61)
Minimum accepted flit rate = 0.0936667 (at node 43)
Average accepted flit rate = 0.109604
Maximum accepted flit rate = 0.128 (at node 54)
Average injected packet length = 1.99981
Average accepted packet length = 2.00057
Total in-flight flits = 266 (266 measured)
Class 1:
Minimum packet latency = 8
Average packet latency = 35.2765
Maximum packet latency = 86
Minimum network latency = 8
Average network latency = 35.2491
Maximum network latency = 86
Slowest packet = 25793
Minimum flit latency = 7
Average flit latency = 34.307
Maximum flit latency = 85
Slowest flit = 51586
Minimum fragmentation = 0
Average fragmentation = 0
Maximum fragmentation = 0
Minimum injected packet rate = 0.0176667 (at node 55)
Average injected packet rate = 0.0253906
Maximum injected packet rate = 0.0333333 (at node 60)
Minimum accepted packet rate = 0.0193333 (at node 38)
Average accepted packet rate = 0.0253438
Maximum accepted packet rate = 0.0323333 (at node 10)
Minimum injected flit rate = 0.0353333 (at node 55)
Average injected flit rate = 0.0507812
Maximum injected flit rate = 0.0666667 (at node 60)
Minimum accepted flit rate = 0.0386667 (at node 38)
Average accepted flit rate = 0.0506875
Maximum accepted flit rate = 0.0646667 (at node 10)
Average injected packet length = 2
Average accepted packet length = 2
Total in-flight flits = 129 (129 measured)
latency change    = 0.00499917
throughput change = 0.00109295
latency change    = 0.0018731
throughput change = 0.0163379
Draining all recorded packets ...
Draining remaining packets ...
Time taken is 6124 cycles
====== Traffic class 0 ======
Overall minimum packet latency = 8 (1 samples)
Overall average packet latency = 35.6601 (1 samples)
Overall maximum packet latency = 87 (1 samples)
Overall minimum network latency = 8 (1 samples)
Overall average network latency = 35.488 (1 samples)
Overall maximum network latency = 87 (1 samples)
Overall minimum flit latency = 7 (1 samples)
Overall average flit latency = 34.2356 (1 samples)
Overall maximum flit latency = 86 (1 samples)
Overall minimum fragmentation = 0 (1 samples)
Overall average fragmentation = 0.554291 (1 samples)
Overall maximum fragmentation = 11 (1 samples)
Overall minimum injected packet rate = 0.0443333 (1 samples)
Overall average injected packet rate = 0.0549219 (1 samples)
Overall maximum injected packet rate = 0.0663333 (1 samples)
Overall minimum accepted packet rate = 0.0466667 (1 samples)
Overall average accepted packet rate = 0.0547865 (1 samples)
Overall maximum accepted packet rate = 0.064 (1 samples)
Overall minimum injected flit rate = 0.0886667 (1 samples)
Overall average injected flit rate = 0.109833 (1 samples)
Overall maximum injected flit rate = 0.132667 (1 samples)
Overall minimum accepted flit rate = 0.0936667 (1 samples)
Overall average accepted flit rate = 0.109604 (1 samples)
Overall maximum accepted flit rate = 0.128 (1 samples)
Overall average injected packet size = 1.99981 (1 samples)
Overall average accepted packet size = 2.00057 (1 samples)
Overall average hops = 6.20474 (1 samples)
====== Traffic class 1 ======
Overall minimum packet latency = 8 (1 samples)
Overall average packet latency = 35.3522 (1 samples)
Overall maximum packet latency = 86 (1 samples)
Overall minimum network latency = 8 (1 samples)
Overall average network latency = 35.3251 (1 samples)
Overall maximum network latency = 86 (1 samples)
Overall minimum flit latency = 7 (1 samples)
Overall average flit latency = 34.3878 (1 samples)
Overall maximum flit latency = 85 (1 samples)
Overall minimum fragmentation = 0 (1 samples)
Overall average fragmentation = 0 (1 samples)
Overall maximum fragmentation = 0 (1 samples)
Overall minimum injected packet rate = 0.0176667 (1 samples)
Overall average injected packet rate = 0.0253906 (1 samples)
Overall maximum injected packet rate = 0.0333333 (1 samples)
Overall minimum accepted packet rate = 0.0193333 (1 samples)
Overall average accepted packet rate = 0.0253438 (1 samples)
Overall maximum accepted packet rate = 0.0323333 (1 samples)
Overall minimum injected flit rate = 0.0353333 (1 samples)
Overall average injected flit rate = 0.0507812 (1 samples)
Overall maximum injected flit rate = 0.0666667 (1 samples)
Overall minimum accepted flit rate = 0.0386667 (1 samples)
Overall average accepted flit rate = 0.0506875 (1 samples)
Overall maximum accepted flit rate = 0.0646667 (1 samples)
Overall average injected packet size = 2 (1 samples)
Overall average accepted packet size = 2 (1 samples)
Overall average hops = 6.24164 (1 samples)
Total run time 13.2618
