BEGIN Configuration File: ./examples/project_inputs/config-iqevc_tp-transpose_c1ir-0.05_c0ir-0.37
//
// EVC Router Config File -         
//
// Jason Deng, Mike Wang        
//        

//
// Flow control
//

num_vcs     = 5;
vc_buf_size = 6;

wait_for_tail_credit = 0;

vc_allocator = select;
sw_allocator = select;
alloc_iters  = 2;

credit_delay   = 2;
routing_delay  = 1;
vc_alloc_delay = 1;
sw_alloc_delay = 1;
st_final_delay = 1;

input_speedup     = 1;
output_speedup    = 1;
internal_speedup  = 1.0;

//
// Traffic
//

sim_type = latency;

warmup_periods = 3;
sample_period  = 1000;
sim_count = 1;

//
//topoogy
//

topology = mesh;
k  = 8;
n  = 2;

//
// Routing
//

router = iqevc;
routing_function = dor;

packet_size = 2;
use_read_write = 0;

traffic  = transpose;
injection_rate = {0.37,0.05};
injection_rate_uses_flits = 1;

classes = 2;
class_priority = {0,1};
priority = class;

noq = 0;
hold_switch_for_packet = 0;
vc_prioritize_empty = 0;

//
// express virtual channel settings
//

evc = 1;
num_evcs = 1;
evc_prioritized_class = 1;
selective_vc_request = 1;
hold_switch_for_evc_packet = 1;
evc_next_route = 1;

END Configuration File: ./examples/project_inputs/config-iqevc_tp-transpose_c1ir-0.05_c0ir-0.37
0
Class 0:
Minimum packet latency = 8
Average packet latency = 107.429
Maximum packet latency = 894
Minimum network latency = 8
Average network latency = 91.9571
Maximum network latency = 894
Slowest packet = 259
Minimum flit latency = 5
Average flit latency = 90.0634
Maximum flit latency = 893
Slowest flit = 518
Minimum fragmentation = 0
Average fragmentation = 1.51745
Maximum fragmentation = 45
Minimum injected packet rate = 0.025 (at node 5)
Average injected packet rate = 0.11625
Maximum injected packet rate = 0.213 (at node 36)
Minimum accepted packet rate = 0.004 (at node 48)
Average accepted packet rate = 0.0998594
Maximum accepted packet rate = 0.213 (at node 36)
Minimum injected flit rate = 0.05 (at node 5)
Average injected flit rate = 0.232406
Maximum injected flit rate = 0.426 (at node 36)
Minimum accepted flit rate = 0.008 (at node 48)
Average accepted flit rate = 0.199969
Maximum accepted flit rate = 0.426 (at node 36)
Average injected packet length = 1.99919
Average accepted packet length = 2.0025
Total in-flight flits = 2156 (0 measured)
Class 1:
Minimum packet latency = 8
Average packet latency = 87.8203
Maximum packet latency = 765
Minimum network latency = 8
Average network latency = 77.9636
Maximum network latency = 749
Slowest packet = 1797
Minimum flit latency = 7
Average flit latency = 76.4408
Maximum flit latency = 748
Slowest flit = 3594
Minimum fragmentation = 0
Average fragmentation = 0
Maximum fragmentation = 0
Minimum injected packet rate = 0.005 (at node 57)
Average injected packet rate = 0.0232656
Maximum injected packet rate = 0.04 (at node 59)
Minimum accepted packet rate = 0.001 (at node 14)
Average accepted packet rate = 0.0197344
Maximum accepted packet rate = 0.034 (at node 47)
Minimum injected flit rate = 0.01 (at node 57)
Average injected flit rate = 0.0464375
Maximum injected flit rate = 0.08 (at node 59)
Minimum accepted flit rate = 0.002 (at node 14)
Average accepted flit rate = 0.0394844
Maximum accepted flit rate = 0.068 (at node 47)
Average injected packet length = 1.99597
Average accepted packet length = 2.00079
Total in-flight flits = 475 (0 measured)
latency change    = 1
throughput change = 1
latency change    = 1
throughput change = 1
0
Class 0:
Minimum packet latency = 8
Average packet latency = 192.89
Maximum packet latency = 1917
Minimum network latency = 8
Average network latency = 118.058
Maximum network latency = 1917
Slowest packet = 998
Minimum flit latency = 5
Average flit latency = 115.881
Maximum flit latency = 1916
Slowest flit = 1996
Minimum fragmentation = 0
Average fragmentation = 1.67927
Maximum fragmentation = 56
Minimum injected packet rate = 0.0125 (at node 57)
Average injected packet rate = 0.107859
Maximum injected packet rate = 0.1955 (at node 36)
Minimum accepted packet rate = 0.0035 (at node 15)
Average accepted packet rate = 0.0989687
Maximum accepted packet rate = 0.1945 (at node 36)
Minimum injected flit rate = 0.025 (at node 57)
Average injected flit rate = 0.215625
Maximum injected flit rate = 0.391 (at node 36)
Minimum accepted flit rate = 0.007 (at node 15)
Average accepted flit rate = 0.198117
Maximum accepted flit rate = 0.3895 (at node 36)
Average injected packet length = 1.99913
Average accepted packet length = 2.00182
Total in-flight flits = 2317 (0 measured)
Class 1:
Minimum packet latency = 8
Average packet latency = 140.274
Maximum packet latency = 1701
Minimum network latency = 8
Average network latency = 108.35
Maximum network latency = 1607
Slowest packet = 1640
Minimum flit latency = 7
Average flit latency = 106.612
Maximum flit latency = 1606
Slowest flit = 3280
Minimum fragmentation = 0
Average fragmentation = 0
Maximum fragmentation = 0
Minimum injected packet rate = 0.0035 (at node 56)
Average injected packet rate = 0.0242266
Maximum injected packet rate = 0.033 (at node 54)
Minimum accepted packet rate = 0.0015 (at node 7)
Average accepted packet rate = 0.0227578
Maximum accepted packet rate = 0.033 (at node 54)
Minimum injected flit rate = 0.007 (at node 56)
Average injected flit rate = 0.0484062
Maximum injected flit rate = 0.066 (at node 54)
Minimum accepted flit rate = 0.003 (at node 7)
Average accepted flit rate = 0.0455234
Maximum accepted flit rate = 0.066 (at node 54)
Average injected packet length = 1.99807
Average accepted packet length = 2.00034
Total in-flight flits = 407 (0 measured)
latency change    = 0.443053
throughput change = 0.00934579
latency change    = 0.373937
throughput change = 0.132658
0
Class 0:
Minimum packet latency = 8
Average packet latency = 451.346
Maximum packet latency = 2844
Minimum network latency = 8
Average network latency = 157.904
Maximum network latency = 2839
Slowest packet = 1958
Minimum flit latency = 5
Average flit latency = 155.938
Maximum flit latency = 2855
Slowest flit = 3634
Minimum fragmentation = 0
Average fragmentation = 1.74381
Maximum fragmentation = 50
Minimum injected packet rate = 0 (at node 5)
Average injected packet rate = 0.0997344
Maximum injected packet rate = 0.209 (at node 53)
Minimum accepted packet rate = 0.002 (at node 7)
Average accepted packet rate = 0.100266
Maximum accepted packet rate = 0.209 (at node 2)
Minimum injected flit rate = 0 (at node 5)
Average injected flit rate = 0.1995
Maximum injected flit rate = 0.417 (at node 53)
Minimum accepted flit rate = 0.004 (at node 7)
Average accepted flit rate = 0.200406
Maximum accepted flit rate = 0.417 (at node 2)
Average injected packet length = 2.00031
Average accepted packet length = 1.99875
Total in-flight flits = 2259 (0 measured)
Class 1:
Minimum packet latency = 8
Average packet latency = 213.013
Maximum packet latency = 2815
Minimum network latency = 8
Average network latency = 131.527
Maximum network latency = 2815
Slowest packet = 1374
Minimum flit latency = 7
Average flit latency = 129.781
Maximum flit latency = 2814
Slowest flit = 2748
Minimum fragmentation = 0
Average fragmentation = 0
Maximum fragmentation = 0
Minimum injected packet rate = 0.004 (at node 56)
Average injected packet rate = 0.0238906
Maximum injected packet rate = 0.067 (at node 7)
Minimum accepted packet rate = 0 (at node 7)
Average accepted packet rate = 0.0234844
Maximum accepted packet rate = 0.064 (at node 56)
Minimum injected flit rate = 0.008 (at node 56)
Average injected flit rate = 0.0477969
Maximum injected flit rate = 0.134 (at node 7)
Minimum accepted flit rate = 0 (at node 7)
Average accepted flit rate = 0.047
Maximum accepted flit rate = 0.128 (at node 56)
Average injected packet length = 2.00065
Average accepted packet length = 2.00133
Total in-flight flits = 457 (0 measured)
latency change    = 0.572634
throughput change = 0.0114221
latency change    = 0.341476
throughput change = 0.0314162
Average latency for class 0 exceeded 500 cycles. Aborting simulation.
Too many sample periods needed to converge
Simulation unstable, ending ...
Total run time 18.7433
