BEGIN Configuration File: ./examples/project_inputs/config-iqevc_tp-bitcomp_c1ir-0.05_c0ir-0.23
//
// EVC Router Config File -         
//
// Jason Deng, Mike Wang        
//        

//
// Flow control
//

num_vcs     = 5;
vc_buf_size = 6;

wait_for_tail_credit = 0;

vc_allocator = select;
sw_allocator = select;
alloc_iters  = 2;

credit_delay   = 2;
routing_delay  = 1;
vc_alloc_delay = 1;
sw_alloc_delay = 1;
st_final_delay = 1;

input_speedup     = 1;
output_speedup    = 1;
internal_speedup  = 1.0;

//
// Traffic
//

sim_type = latency;

warmup_periods = 3;
sample_period  = 1000;
sim_count = 1;

//
//topoogy
//

topology = mesh;
k  = 8;
n  = 2;

//
// Routing
//

router = iqevc;
routing_function = dor;

packet_size = 2;
use_read_write = 0;

traffic  = bitcomp;
injection_rate = {0.23,0.05};
injection_rate_uses_flits = 1;

classes = 2;
class_priority = {0,1};
priority = class;

noq = 0;
hold_switch_for_packet = 0;
vc_prioritize_empty = 0;

//
// express virtual channel settings
//

evc = 1;
num_evcs = 1;
evc_prioritized_class = 1;
selective_vc_request = 1;
hold_switch_for_evc_packet = 1;
evc_next_route = 1;

END Configuration File: ./examples/project_inputs/config-iqevc_tp-bitcomp_c1ir-0.05_c0ir-0.23
0
Class 0:
Minimum packet latency = 18
Average packet latency = 138.666
Maximum packet latency = 686
Minimum network latency = 18
Average network latency = 138.044
Maximum network latency = 686
Slowest packet = 2540
Minimum flit latency = 17
Average flit latency = 136.237
Maximum flit latency = 685
Slowest flit = 5080
Minimum fragmentation = 0
Average fragmentation = 1.79219
Maximum fragmentation = 37
Minimum injected packet rate = 0.051 (at node 49)
Average injected packet rate = 0.101078
Maximum injected packet rate = 0.129 (at node 27)
Minimum accepted packet rate = 0.03 (at node 14)
Average accepted packet rate = 0.0776719
Maximum accepted packet rate = 0.122 (at node 36)
Minimum injected flit rate = 0.102 (at node 49)
Average injected flit rate = 0.202078
Maximum injected flit rate = 0.258 (at node 27)
Minimum accepted flit rate = 0.06 (at node 14)
Average accepted flit rate = 0.155594
Maximum accepted flit rate = 0.245 (at node 36)
Average injected packet length = 1.99923
Average accepted packet length = 2.00322
Total in-flight flits = 3040 (0 measured)
Class 1:
Minimum packet latency = 18
Average packet latency = 71.2657
Maximum packet latency = 434
Minimum network latency = 18
Average network latency = 69.4391
Maximum network latency = 426
Slowest packet = 4324
Minimum flit latency = 17
Average flit latency = 68.396
Maximum flit latency = 425
Slowest flit = 8648
Minimum fragmentation = 0
Average fragmentation = 0
Maximum fragmentation = 0
Minimum injected packet rate = 0.012 (at node 9)
Average injected packet rate = 0.0246563
Maximum injected packet rate = 0.037 (at node 14)
Minimum accepted packet rate = 0.006 (at node 54)
Average accepted packet rate = 0.0211719
Maximum accepted packet rate = 0.031 (at node 49)
Minimum injected flit rate = 0.023 (at node 9)
Average injected flit rate = 0.0491719
Maximum injected flit rate = 0.074 (at node 14)
Minimum accepted flit rate = 0.012 (at node 54)
Average accepted flit rate = 0.042375
Maximum accepted flit rate = 0.062 (at node 49)
Average injected packet length = 1.9943
Average accepted packet length = 2.00148
Total in-flight flits = 474 (0 measured)
latency change    = 1
throughput change = 1
latency change    = 1
throughput change = 1
0
Class 0:
Minimum packet latency = 18
Average packet latency = 237.71
Maximum packet latency = 1597
Minimum network latency = 18
Average network latency = 213.879
Maximum network latency = 1597
Slowest packet = 3553
Minimum flit latency = 17
Average flit latency = 211.881
Maximum flit latency = 1596
Slowest flit = 7106
Minimum fragmentation = 0
Average fragmentation = 1.77088
Maximum fragmentation = 37
Minimum injected packet rate = 0.032 (at node 49)
Average injected packet rate = 0.0811016
Maximum injected packet rate = 0.1265 (at node 27)
Minimum accepted packet rate = 0.0215 (at node 14)
Average accepted packet rate = 0.0691172
Maximum accepted packet rate = 0.124 (at node 36)
Minimum injected flit rate = 0.064 (at node 49)
Average injected flit rate = 0.162109
Maximum injected flit rate = 0.2525 (at node 27)
Minimum accepted flit rate = 0.043 (at node 14)
Average accepted flit rate = 0.138289
Maximum accepted flit rate = 0.248 (at node 36)
Average injected packet length = 1.99884
Average accepted packet length = 2.00079
Total in-flight flits = 3147 (0 measured)
Class 1:
Minimum packet latency = 18
Average packet latency = 135.251
Maximum packet latency = 1395
Minimum network latency = 18
Average network latency = 117.402
Maximum network latency = 1233
Slowest packet = 4991
Minimum flit latency = 17
Average flit latency = 115.94
Maximum flit latency = 1232
Slowest flit = 9982
Minimum fragmentation = 0
Average fragmentation = 0
Maximum fragmentation = 0
Minimum injected packet rate = 0.018 (at node 9)
Average injected packet rate = 0.0250469
Maximum injected packet rate = 0.035 (at node 14)
Minimum accepted packet rate = 0.0145 (at node 54)
Average accepted packet rate = 0.0228672
Maximum accepted packet rate = 0.031 (at node 34)
Minimum injected flit rate = 0.036 (at node 9)
Average injected flit rate = 0.0500469
Maximum injected flit rate = 0.07 (at node 14)
Minimum accepted flit rate = 0.029 (at node 54)
Average accepted flit rate = 0.0457344
Maximum accepted flit rate = 0.062 (at node 34)
Average injected packet length = 1.99813
Average accepted packet length = 2
Total in-flight flits = 600 (0 measured)
latency change    = 0.416661
throughput change = 0.125134
latency change    = 0.473086
throughput change = 0.073454
0
Class 0:
Minimum packet latency = 25
Average packet latency = 686.411
Maximum packet latency = 2507
Minimum network latency = 25
Average network latency = 400.185
Maximum network latency = 2507
Slowest packet = 4137
Minimum flit latency = 23
Average flit latency = 397.512
Maximum flit latency = 2506
Slowest flit = 8274
Minimum fragmentation = 0
Average fragmentation = 1.88042
Maximum fragmentation = 55
Minimum injected packet rate = 0.004 (at node 48)
Average injected packet rate = 0.056875
Maximum injected packet rate = 0.121 (at node 20)
Minimum accepted packet rate = 0.007 (at node 8)
Average accepted packet rate = 0.0565781
Maximum accepted packet rate = 0.128 (at node 34)
Minimum injected flit rate = 0.008 (at node 48)
Average injected flit rate = 0.113828
Maximum injected flit rate = 0.242 (at node 20)
Minimum accepted flit rate = 0.014 (at node 8)
Average accepted flit rate = 0.113203
Maximum accepted flit rate = 0.256 (at node 34)
Average injected packet length = 2.00137
Average accepted packet length = 2.00083
Total in-flight flits = 3186 (0 measured)
Class 1:
Minimum packet latency = 18
Average packet latency = 214.868
Maximum packet latency = 1534
Minimum network latency = 18
Average network latency = 177.059
Maximum network latency = 1366
Slowest packet = 8558
Minimum flit latency = 17
Average flit latency = 175.097
Maximum flit latency = 1365
Slowest flit = 21700
Minimum fragmentation = 0
Average fragmentation = 0
Maximum fragmentation = 0
Minimum injected packet rate = 0.01 (at node 62)
Average injected packet rate = 0.0237188
Maximum injected packet rate = 0.034 (at node 31)
Minimum accepted packet rate = 0.005 (at node 1)
Average accepted packet rate = 0.0245781
Maximum accepted packet rate = 0.035 (at node 44)
Minimum injected flit rate = 0.02 (at node 62)
Average injected flit rate = 0.0475
Maximum injected flit rate = 0.068 (at node 31)
Minimum accepted flit rate = 0.01 (at node 1)
Average accepted flit rate = 0.0492031
Maximum accepted flit rate = 0.07 (at node 44)
Average injected packet length = 2.00264
Average accepted packet length = 2.00191
Total in-flight flits = 483 (0 measured)
latency change    = 0.653691
throughput change = 0.221601
latency change    = 0.370538
throughput change = 0.0704986
Average latency for class 0 exceeded 500 cycles. Aborting simulation.
Too many sample periods needed to converge
Simulation unstable, ending ...
Total run time 11.5366
