BEGIN Configuration File: ./examples/project_inputs/config-iqevc_tp-bitcomp_c1ir-0.05_c0ir-0.31
//
// EVC Router Config File -         
//
// Jason Deng, Mike Wang        
//        

//
// Flow control
//

num_vcs     = 5;
vc_buf_size = 6;

wait_for_tail_credit = 0;

vc_allocator = select;
sw_allocator = select;
alloc_iters  = 2;

credit_delay   = 2;
routing_delay  = 1;
vc_alloc_delay = 1;
sw_alloc_delay = 1;
st_final_delay = 1;

input_speedup     = 1;
output_speedup    = 1;
internal_speedup  = 1.0;

//
// Traffic
//

sim_type = latency;

warmup_periods = 3;
sample_period  = 1000;
sim_count = 1;

//
//topoogy
//

topology = mesh;
k  = 8;
n  = 2;

//
// Routing
//

router = iqevc;
routing_function = dor;

packet_size = 2;
use_read_write = 0;

traffic  = bitcomp;
injection_rate = {0.31,0.05};
injection_rate_uses_flits = 1;

classes = 2;
class_priority = {0,1};
priority = class;

noq = 0;
hold_switch_for_packet = 0;
vc_prioritize_empty = 0;

//
// express virtual channel settings
//

evc = 1;
num_evcs = 1;
evc_prioritized_class = 1;
selective_vc_request = 1;
hold_switch_for_evc_packet = 1;
evc_next_route = 1;

END Configuration File: ./examples/project_inputs/config-iqevc_tp-bitcomp_c1ir-0.05_c0ir-0.31
0
Class 0:
Minimum packet latency = 18
Average packet latency = 207.177
Maximum packet latency = 844
Minimum network latency = 18
Average network latency = 199.73
Maximum network latency = 844
Slowest packet = 1579
Minimum flit latency = 17
Average flit latency = 197.946
Maximum flit latency = 843
Slowest flit = 3158
Minimum fragmentation = 0
Average fragmentation = 1.6644
Maximum fragmentation = 46
Minimum injected packet rate = 0.038 (at node 49)
Average injected packet rate = 0.0795625
Maximum injected packet rate = 0.158 (at node 35)
Minimum accepted packet rate = 0.02 (at node 15)
Average accepted packet rate = 0.0550781
Maximum accepted packet rate = 0.15 (at node 28)
Minimum injected flit rate = 0.076 (at node 49)
Average injected flit rate = 0.158922
Maximum injected flit rate = 0.316 (at node 35)
Minimum accepted flit rate = 0.04 (at node 15)
Average accepted flit rate = 0.110297
Maximum accepted flit rate = 0.301 (at node 28)
Average injected packet length = 1.99745
Average accepted packet length = 2.00255
Total in-flight flits = 3219 (0 measured)
Class 1:
Minimum packet latency = 18
Average packet latency = 140.964
Maximum packet latency = 719
Minimum network latency = 18
Average network latency = 119.394
Maximum network latency = 719
Slowest packet = 2348
Minimum flit latency = 17
Average flit latency = 117.883
Maximum flit latency = 718
Slowest flit = 4696
Minimum fragmentation = 0
Average fragmentation = 0
Maximum fragmentation = 0
Minimum injected packet rate = 0.008 (at node 48)
Average injected packet rate = 0.0237969
Maximum injected packet rate = 0.037 (at node 34)
Minimum accepted packet rate = 0.004 (at node 9)
Average accepted packet rate = 0.0188594
Maximum accepted packet rate = 0.034 (at node 19)
Minimum injected flit rate = 0.016 (at node 48)
Average injected flit rate = 0.0475156
Maximum injected flit rate = 0.074 (at node 34)
Minimum accepted flit rate = 0.008 (at node 9)
Average accepted flit rate = 0.0377188
Maximum accepted flit rate = 0.068 (at node 19)
Average injected packet length = 1.99672
Average accepted packet length = 2
Total in-flight flits = 680 (0 measured)
latency change    = 1
throughput change = 1
latency change    = 1
throughput change = 1
0
Class 0:
Minimum packet latency = 18
Average packet latency = 413.984
Maximum packet latency = 1794
Minimum network latency = 18
Average network latency = 310.094
Maximum network latency = 1794
Slowest packet = 2150
Minimum flit latency = 17
Average flit latency = 307.963
Maximum flit latency = 1793
Slowest flit = 4300
Minimum fragmentation = 0
Average fragmentation = 1.75735
Maximum fragmentation = 46
Minimum injected packet rate = 0.024 (at node 49)
Average injected packet rate = 0.0617969
Maximum injected packet rate = 0.1605 (at node 35)
Minimum accepted packet rate = 0.0135 (at node 55)
Average accepted packet rate = 0.0494531
Maximum accepted packet rate = 0.1545 (at node 28)
Minimum injected flit rate = 0.048 (at node 49)
Average injected flit rate = 0.123539
Maximum injected flit rate = 0.321 (at node 35)
Minimum accepted flit rate = 0.027 (at node 55)
Average accepted flit rate = 0.0989922
Maximum accepted flit rate = 0.31 (at node 28)
Average injected packet length = 1.99912
Average accepted packet length = 2.00174
Total in-flight flits = 3251 (0 measured)
Class 1:
Minimum packet latency = 18
Average packet latency = 216.354
Maximum packet latency = 1580
Minimum network latency = 18
Average network latency = 166.513
Maximum network latency = 1509
Slowest packet = 3177
Minimum flit latency = 17
Average flit latency = 164.758
Maximum flit latency = 1508
Slowest flit = 8400
Minimum fragmentation = 0
Average fragmentation = 0
Maximum fragmentation = 0
Minimum injected packet rate = 0.016 (at node 6)
Average injected packet rate = 0.0249688
Maximum injected packet rate = 0.033 (at node 39)
Minimum accepted packet rate = 0.013 (at node 57)
Average accepted packet rate = 0.0227734
Maximum accepted packet rate = 0.032 (at node 43)
Minimum injected flit rate = 0.032 (at node 6)
Average injected flit rate = 0.0499141
Maximum injected flit rate = 0.066 (at node 39)
Minimum accepted flit rate = 0.026 (at node 57)
Average accepted flit rate = 0.0455547
Maximum accepted flit rate = 0.064 (at node 43)
Average injected packet length = 1.99906
Average accepted packet length = 2.00034
Total in-flight flits = 607 (0 measured)
latency change    = 0.499554
throughput change = 0.114198
latency change    = 0.348455
throughput change = 0.172012
Average latency for class 0 exceeded 500 cycles. Aborting simulation.
Too many sample periods needed to converge
Simulation unstable, ending ...
Total run time 6.93632
