BEGIN Configuration File: ./examples/project_inputs/config-iqevc_tp-bitcomp_c1ir-0.05_c0ir-0.07
//
// EVC Router Config File -         
//
// Jason Deng, Mike Wang        
//        

//
// Flow control
//

num_vcs     = 5;
vc_buf_size = 6;

wait_for_tail_credit = 0;

vc_allocator = select;
sw_allocator = select;
alloc_iters  = 2;

credit_delay   = 2;
routing_delay  = 1;
vc_alloc_delay = 1;
sw_alloc_delay = 1;
st_final_delay = 1;

input_speedup     = 1;
output_speedup    = 1;
internal_speedup  = 1.0;

//
// Traffic
//

sim_type = latency;

warmup_periods = 3;
sample_period  = 1000;
sim_count = 1;

//
//topoogy
//

topology = mesh;
k  = 8;
n  = 2;

//
// Routing
//

router = iqevc;
routing_function = dor;

packet_size = 2;
use_read_write = 0;

traffic  = bitcomp;
injection_rate = {0.07,0.05};
injection_rate_uses_flits = 1;

classes = 2;
class_priority = {0,1};
priority = class;

noq = 0;
hold_switch_for_packet = 0;
vc_prioritize_empty = 0;

//
// express virtual channel settings
//

evc = 1;
num_evcs = 1;
evc_prioritized_class = 1;
selective_vc_request = 1;
hold_switch_for_evc_packet = 1;
evc_next_route = 1;

END Configuration File: ./examples/project_inputs/config-iqevc_tp-bitcomp_c1ir-0.05_c0ir-0.07
0
Class 0:
Minimum packet latency = 18
Average packet latency = 50.9318
Maximum packet latency = 96
Minimum network latency = 18
Average network latency = 50.7821
Maximum network latency = 95
Slowest packet = 2523
Minimum flit latency = 17
Average flit latency = 49.4281
Maximum flit latency = 94
Slowest flit = 5047
Minimum fragmentation = 0
Average fragmentation = 0.664812
Maximum fragmentation = 18
Minimum injected packet rate = 0.021 (at node 47)
Average injected packet rate = 0.0353906
Maximum injected packet rate = 0.048 (at node 58)
Minimum accepted packet rate = 0.021 (at node 16)
Average accepted packet rate = 0.0337031
Maximum accepted packet rate = 0.047 (at node 5)
Minimum injected flit rate = 0.042 (at node 47)
Average injected flit rate = 0.0707344
Maximum injected flit rate = 0.096 (at node 58)
Minimum accepted flit rate = 0.042 (at node 16)
Average accepted flit rate = 0.0674531
Maximum accepted flit rate = 0.094 (at node 5)
Average injected packet length = 1.99868
Average accepted packet length = 2.00139
Total in-flight flits = 213 (0 measured)
Class 1:
Minimum packet latency = 18
Average packet latency = 50.3349
Maximum packet latency = 89
Minimum network latency = 18
Average network latency = 50.2991
Maximum network latency = 89
Slowest packet = 1615
Minimum flit latency = 17
Average flit latency = 49.2879
Maximum flit latency = 88
Slowest flit = 3230
Minimum fragmentation = 0
Average fragmentation = 0
Maximum fragmentation = 0
Minimum injected packet rate = 0.017 (at node 3)
Average injected packet rate = 0.0252969
Maximum injected packet rate = 0.039 (at node 28)
Minimum accepted packet rate = 0.015 (at node 23)
Average accepted packet rate = 0.0240313
Maximum accepted packet rate = 0.038 (at node 35)
Minimum injected flit rate = 0.034 (at node 3)
Average injected flit rate = 0.0505781
Maximum injected flit rate = 0.078 (at node 28)
Minimum accepted flit rate = 0.03 (at node 23)
Average accepted flit rate = 0.0481406
Maximum accepted flit rate = 0.076 (at node 35)
Average injected packet length = 1.99938
Average accepted packet length = 2.00325
Total in-flight flits = 157 (0 measured)
latency change    = 1
throughput change = 1
latency change    = 1
throughput change = 1
0
Class 0:
Minimum packet latency = 18
Average packet latency = 51.0643
Maximum packet latency = 96
Minimum network latency = 18
Average network latency = 50.9209
Maximum network latency = 95
Slowest packet = 2523
Minimum flit latency = 17
Average flit latency = 49.5707
Maximum flit latency = 94
Slowest flit = 5047
Minimum fragmentation = 0
Average fragmentation = 0.640227
Maximum fragmentation = 20
Minimum injected packet rate = 0.024 (at node 12)
Average injected packet rate = 0.0352031
Maximum injected packet rate = 0.0485 (at node 2)
Minimum accepted packet rate = 0.023 (at node 51)
Average accepted packet rate = 0.034375
Maximum accepted packet rate = 0.0475 (at node 61)
Minimum injected flit rate = 0.048 (at node 12)
Average injected flit rate = 0.0703672
Maximum injected flit rate = 0.097 (at node 2)
Minimum accepted flit rate = 0.046 (at node 51)
Average accepted flit rate = 0.0687656
Maximum accepted flit rate = 0.095 (at node 61)
Average injected packet length = 1.99889
Average accepted packet length = 2.00045
Total in-flight flits = 210 (0 measured)
Class 1:
Minimum packet latency = 18
Average packet latency = 50.2236
Maximum packet latency = 99
Minimum network latency = 18
Average network latency = 50.1863
Maximum network latency = 98
Slowest packet = 5461
Minimum flit latency = 17
Average flit latency = 49.1837
Maximum flit latency = 97
Slowest flit = 10922
Minimum fragmentation = 0
Average fragmentation = 0
Maximum fragmentation = 0
Minimum injected packet rate = 0.02 (at node 25)
Average injected packet rate = 0.0250703
Maximum injected packet rate = 0.0315 (at node 28)
Minimum accepted packet rate = 0.02 (at node 30)
Average accepted packet rate = 0.0244922
Maximum accepted packet rate = 0.031 (at node 35)
Minimum injected flit rate = 0.04 (at node 25)
Average injected flit rate = 0.0501406
Maximum injected flit rate = 0.063 (at node 28)
Minimum accepted flit rate = 0.04 (at node 30)
Average accepted flit rate = 0.0489922
Maximum accepted flit rate = 0.062 (at node 35)
Average injected packet length = 2
Average accepted packet length = 2.00032
Total in-flight flits = 147 (0 measured)
latency change    = 0.00259415
throughput change = 0.0190866
latency change    = 0.00221501
throughput change = 0.0173816
0
Class 0:
Minimum packet latency = 18
Average packet latency = 50.9435
Maximum packet latency = 89
Minimum network latency = 18
Average network latency = 50.8329
Maximum network latency = 88
Slowest packet = 8422
Minimum flit latency = 16
Average flit latency = 49.4974
Maximum flit latency = 87
Slowest flit = 16845
Minimum fragmentation = 0
Average fragmentation = 0.609756
Maximum fragmentation = 15
Minimum injected packet rate = 0.019 (at node 49)
Average injected packet rate = 0.0349219
Maximum injected packet rate = 0.052 (at node 1)
Minimum accepted packet rate = 0.02 (at node 14)
Average accepted packet rate = 0.0345937
Maximum accepted packet rate = 0.052 (at node 62)
Minimum injected flit rate = 0.038 (at node 49)
Average injected flit rate = 0.0699219
Maximum injected flit rate = 0.104 (at node 1)
Minimum accepted flit rate = 0.04 (at node 14)
Average accepted flit rate = 0.0692344
Maximum accepted flit rate = 0.104 (at node 62)
Average injected packet length = 2.00224
Average accepted packet length = 2.00136
Total in-flight flits = 249 (0 measured)
Class 1:
Minimum packet latency = 18
Average packet latency = 49.9742
Maximum packet latency = 98
Minimum network latency = 18
Average network latency = 49.9471
Maximum network latency = 98
Slowest packet = 9703
Minimum flit latency = 17
Average flit latency = 48.9603
Maximum flit latency = 97
Slowest flit = 19406
Minimum fragmentation = 0
Average fragmentation = 0
Maximum fragmentation = 0
Minimum injected packet rate = 0.01 (at node 47)
Average injected packet rate = 0.0241406
Maximum injected packet rate = 0.037 (at node 21)
Minimum accepted packet rate = 0.01 (at node 16)
Average accepted packet rate = 0.0242188
Maximum accepted packet rate = 0.036 (at node 42)
Minimum injected flit rate = 0.02 (at node 47)
Average injected flit rate = 0.0482812
Maximum injected flit rate = 0.074 (at node 21)
Minimum accepted flit rate = 0.02 (at node 16)
Average accepted flit rate = 0.0484687
Maximum accepted flit rate = 0.072 (at node 42)
Average injected packet length = 2
Average accepted packet length = 2.00129
Total in-flight flits = 135 (0 measured)
latency change    = 0.0023708
throughput change = 0.00677048
latency change    = 0.00499079
throughput change = 0.0107995
Warmed up ...Time used is 3000 cycles
1
Class 0:
Minimum packet latency = 18
Average packet latency = 50.6592
Maximum packet latency = 99
Minimum network latency = 18
Average network latency = 50.5187
Maximum network latency = 99
Slowest packet = 13440
Minimum flit latency = 15
Average flit latency = 49.4774
Maximum flit latency = 98
Slowest flit = 26880
Minimum fragmentation = 0
Average fragmentation = 0.701946
Maximum fragmentation = 16
Minimum injected packet rate = 0.019 (at node 5)
Average injected packet rate = 0.0347812
Maximum injected packet rate = 0.048 (at node 2)
Minimum accepted packet rate = 0.02 (at node 58)
Average accepted packet rate = 0.0349062
Maximum accepted packet rate = 0.046 (at node 61)
Minimum injected flit rate = 0.038 (at node 5)
Average injected flit rate = 0.0695
Maximum injected flit rate = 0.096 (at node 2)
Minimum accepted flit rate = 0.04 (at node 58)
Average accepted flit rate = 0.0697813
Maximum accepted flit rate = 0.092 (at node 61)
Average injected packet length = 1.9982
Average accepted packet length = 1.9991
Total in-flight flits = 235 (235 measured)
Class 1:
Minimum packet latency = 18
Average packet latency = 49.6398
Maximum packet latency = 93
Minimum network latency = 18
Average network latency = 49.6089
Maximum network latency = 93
Slowest packet = 13639
Minimum flit latency = 17
Average flit latency = 48.8905
Maximum flit latency = 92
Slowest flit = 27278
Minimum fragmentation = 0
Average fragmentation = 0
Maximum fragmentation = 0
Minimum injected packet rate = 0.017 (at node 39)
Average injected packet rate = 0.025625
Maximum injected packet rate = 0.038 (at node 35)
Minimum accepted packet rate = 0.017 (at node 24)
Average accepted packet rate = 0.0253281
Maximum accepted packet rate = 0.038 (at node 28)
Minimum injected flit rate = 0.034 (at node 39)
Average injected flit rate = 0.0512188
Maximum injected flit rate = 0.076 (at node 35)
Minimum accepted flit rate = 0.034 (at node 24)
Average accepted flit rate = 0.0506562
Maximum accepted flit rate = 0.076 (at node 28)
Average injected packet length = 1.99878
Average accepted packet length = 2
Total in-flight flits = 173 (173 measured)
latency change    = 0.0056122
throughput change = 0.00783699
latency change    = 0.006736
throughput change = 0.0431832
1
Class 0:
Minimum packet latency = 18
Average packet latency = 50.799
Maximum packet latency = 99
Minimum network latency = 18
Average network latency = 50.6609
Maximum network latency = 99
Slowest packet = 13440
Minimum flit latency = 15
Average flit latency = 49.4479
Maximum flit latency = 98
Slowest flit = 26880
Minimum fragmentation = 0
Average fragmentation = 0.691831
Maximum fragmentation = 23
Minimum injected packet rate = 0.0275 (at node 25)
Average injected packet rate = 0.0349141
Maximum injected packet rate = 0.048 (at node 60)
Minimum accepted packet rate = 0.0265 (at node 38)
Average accepted packet rate = 0.0350391
Maximum accepted packet rate = 0.047 (at node 3)
Minimum injected flit rate = 0.055 (at node 25)
Average injected flit rate = 0.0698125
Maximum injected flit rate = 0.0955 (at node 60)
Minimum accepted flit rate = 0.053 (at node 38)
Average accepted flit rate = 0.0700937
Maximum accepted flit rate = 0.094 (at node 3)
Average injected packet length = 1.99955
Average accepted packet length = 2.00045
Total in-flight flits = 215 (215 measured)
Class 1:
Minimum packet latency = 18
Average packet latency = 50.0019
Maximum packet latency = 98
Minimum network latency = 18
Average network latency = 49.9725
Maximum network latency = 98
Slowest packet = 16684
Minimum flit latency = 17
Average flit latency = 49.109
Maximum flit latency = 97
Slowest flit = 33368
Minimum fragmentation = 0
Average fragmentation = 0
Maximum fragmentation = 0
Minimum injected packet rate = 0.019 (at node 13)
Average injected packet rate = 0.0253438
Maximum injected packet rate = 0.0325 (at node 47)
Minimum accepted packet rate = 0.018 (at node 1)
Average accepted packet rate = 0.0252734
Maximum accepted packet rate = 0.032 (at node 16)
Minimum injected flit rate = 0.038 (at node 13)
Average injected flit rate = 0.0506719
Maximum injected flit rate = 0.065 (at node 47)
Minimum accepted flit rate = 0.036 (at node 1)
Average accepted flit rate = 0.0505234
Maximum accepted flit rate = 0.064 (at node 16)
Average injected packet length = 1.99938
Average accepted packet length = 1.99907
Total in-flight flits = 156 (156 measured)
latency change    = 0.00275122
throughput change = 0.00445831
latency change    = 0.00724124
throughput change = 0.00262873
1
Class 0:
Minimum packet latency = 18
Average packet latency = 50.9711
Maximum packet latency = 102
Minimum network latency = 18
Average network latency = 50.8377
Maximum network latency = 100
Slowest packet = 22354
Minimum flit latency = 15
Average flit latency = 49.5716
Maximum flit latency = 99
Slowest flit = 44708
Minimum fragmentation = 0
Average fragmentation = 0.688855
Maximum fragmentation = 24
Minimum injected packet rate = 0.0266667 (at node 21)
Average injected packet rate = 0.0352552
Maximum injected packet rate = 0.0463333 (at node 60)
Minimum accepted packet rate = 0.027 (at node 42)
Average accepted packet rate = 0.0352448
Maximum accepted packet rate = 0.0453333 (at node 3)
Minimum injected flit rate = 0.0533333 (at node 21)
Average injected flit rate = 0.0704948
Maximum injected flit rate = 0.0926667 (at node 60)
Minimum accepted flit rate = 0.054 (at node 42)
Average accepted flit rate = 0.070474
Maximum accepted flit rate = 0.0906667 (at node 3)
Average injected packet length = 1.99956
Average accepted packet length = 1.99956
Total in-flight flits = 256 (256 measured)
Class 1:
Minimum packet latency = 18
Average packet latency = 50.1599
Maximum packet latency = 98
Minimum network latency = 18
Average network latency = 50.1323
Maximum network latency = 98
Slowest packet = 16684
Minimum flit latency = 17
Average flit latency = 49.2201
Maximum flit latency = 97
Slowest flit = 33368
Minimum fragmentation = 0
Average fragmentation = 0
Maximum fragmentation = 0
Minimum injected packet rate = 0.0196667 (at node 54)
Average injected packet rate = 0.0255625
Maximum injected packet rate = 0.0326667 (at node 47)
Minimum accepted packet rate = 0.0196667 (at node 50)
Average accepted packet rate = 0.025474
Maximum accepted packet rate = 0.0316667 (at node 16)
Minimum injected flit rate = 0.0393333 (at node 54)
Average injected flit rate = 0.0511198
Maximum injected flit rate = 0.0653333 (at node 47)
Minimum accepted flit rate = 0.0393333 (at node 50)
Average accepted flit rate = 0.0509375
Maximum accepted flit rate = 0.0633333 (at node 16)
Average injected packet length = 1.9998
Average accepted packet length = 1.99959
Total in-flight flits = 171 (171 measured)
latency change    = 0.00337631
throughput change = 0.00539502
latency change    = 0.00314987
throughput change = 0.00812883
Draining all recorded packets ...
Draining remaining packets ...
Time taken is 6159 cycles
====== Traffic class 0 ======
Overall minimum packet latency = 18 (1 samples)
Overall average packet latency = 51.057 (1 samples)
Overall maximum packet latency = 102 (1 samples)
Overall minimum network latency = 18 (1 samples)
Overall average network latency = 50.9239 (1 samples)
Overall maximum network latency = 100 (1 samples)
Overall minimum flit latency = 15 (1 samples)
Overall average flit latency = 49.6442 (1 samples)
Overall maximum flit latency = 99 (1 samples)
Overall minimum fragmentation = 0 (1 samples)
Overall average fragmentation = 0.687842 (1 samples)
Overall maximum fragmentation = 24 (1 samples)
Overall minimum injected packet rate = 0.0266667 (1 samples)
Overall average injected packet rate = 0.0352552 (1 samples)
Overall maximum injected packet rate = 0.0463333 (1 samples)
Overall minimum accepted packet rate = 0.027 (1 samples)
Overall average accepted packet rate = 0.0352448 (1 samples)
Overall maximum accepted packet rate = 0.0453333 (1 samples)
Overall minimum injected flit rate = 0.0533333 (1 samples)
Overall average injected flit rate = 0.0704948 (1 samples)
Overall maximum injected flit rate = 0.0926667 (1 samples)
Overall minimum accepted flit rate = 0.054 (1 samples)
Overall average accepted flit rate = 0.070474 (1 samples)
Overall maximum accepted flit rate = 0.0906667 (1 samples)
Overall average injected packet size = 1.99956 (1 samples)
Overall average accepted packet size = 1.99956 (1 samples)
Overall average hops = 9.06471 (1 samples)
====== Traffic class 1 ======
Overall minimum packet latency = 18 (1 samples)
Overall average packet latency = 50.3062 (1 samples)
Overall maximum packet latency = 98 (1 samples)
Overall minimum network latency = 18 (1 samples)
Overall average network latency = 50.2785 (1 samples)
Overall maximum network latency = 98 (1 samples)
Overall minimum flit latency = 17 (1 samples)
Overall average flit latency = 49.3423 (1 samples)
Overall maximum flit latency = 97 (1 samples)
Overall minimum fragmentation = 0 (1 samples)
Overall average fragmentation = 0 (1 samples)
Overall maximum fragmentation = 0 (1 samples)
Overall minimum injected packet rate = 0.0196667 (1 samples)
Overall average injected packet rate = 0.0255625 (1 samples)
Overall maximum injected packet rate = 0.0326667 (1 samples)
Overall minimum accepted packet rate = 0.0196667 (1 samples)
Overall average accepted packet rate = 0.025474 (1 samples)
Overall maximum accepted packet rate = 0.0316667 (1 samples)
Overall minimum injected flit rate = 0.0393333 (1 samples)
Overall average injected flit rate = 0.0511198 (1 samples)
Overall maximum injected flit rate = 0.0653333 (1 samples)
Overall minimum accepted flit rate = 0.0393333 (1 samples)
Overall average accepted flit rate = 0.0509375 (1 samples)
Overall maximum accepted flit rate = 0.0633333 (1 samples)
Overall average injected packet size = 1.9998 (1 samples)
Overall average accepted packet size = 1.99959 (1 samples)
Overall average hops = 8.97148 (1 samples)
Total run time 13.0575
