BEGIN Configuration File: ./examples/project_inputs/config-iqevc_tp-bitcomp_c1ir-0.05_c0ir-0.11
//
// EVC Router Config File -         
//
// Jason Deng, Mike Wang        
//        

//
// Flow control
//

num_vcs     = 5;
vc_buf_size = 6;

wait_for_tail_credit = 0;

vc_allocator = select;
sw_allocator = select;
alloc_iters  = 2;

credit_delay   = 2;
routing_delay  = 1;
vc_alloc_delay = 1;
sw_alloc_delay = 1;
st_final_delay = 1;

input_speedup     = 1;
output_speedup    = 1;
internal_speedup  = 1.0;

//
// Traffic
//

sim_type = latency;

warmup_periods = 3;
sample_period  = 1000;
sim_count = 1;

//
//topoogy
//

topology = mesh;
k  = 8;
n  = 2;

//
// Routing
//

router = iqevc;
routing_function = dor;

packet_size = 2;
use_read_write = 0;

traffic  = bitcomp;
injection_rate = {0.11,0.05};
injection_rate_uses_flits = 1;

classes = 2;
class_priority = {0,1};
priority = class;

noq = 0;
hold_switch_for_packet = 0;
vc_prioritize_empty = 0;

//
// express virtual channel settings
//

evc = 1;
num_evcs = 1;
evc_prioritized_class = 1;
selective_vc_request = 1;
hold_switch_for_evc_packet = 1;
evc_next_route = 1;

END Configuration File: ./examples/project_inputs/config-iqevc_tp-bitcomp_c1ir-0.05_c0ir-0.11
0
Class 0:
Minimum packet latency = 18
Average packet latency = 52.8436
Maximum packet latency = 107
Minimum network latency = 18
Average network latency = 52.6714
Maximum network latency = 107
Slowest packet = 1065
Minimum flit latency = 17
Average flit latency = 51.136
Maximum flit latency = 106
Slowest flit = 2131
Minimum fragmentation = 0
Average fragmentation = 1.02542
Maximum fragmentation = 23
Minimum injected packet rate = 0.04 (at node 9)
Average injected packet rate = 0.0546406
Maximum injected packet rate = 0.072 (at node 32)
Minimum accepted packet rate = 0.036 (at node 54)
Average accepted packet rate = 0.0516406
Maximum accepted packet rate = 0.067 (at node 5)
Minimum injected flit rate = 0.08 (at node 9)
Average injected flit rate = 0.109234
Maximum injected flit rate = 0.144 (at node 32)
Minimum accepted flit rate = 0.073 (at node 54)
Average accepted flit rate = 0.103391
Maximum accepted flit rate = 0.134 (at node 5)
Average injected packet length = 1.99914
Average accepted packet length = 2.00212
Total in-flight flits = 377 (0 measured)
Class 1:
Minimum packet latency = 18
Average packet latency = 49.7353
Maximum packet latency = 92
Minimum network latency = 18
Average network latency = 49.7033
Maximum network latency = 91
Slowest packet = 3936
Minimum flit latency = 17
Average flit latency = 48.7141
Maximum flit latency = 90
Slowest flit = 7872
Minimum fragmentation = 0
Average fragmentation = 0
Maximum fragmentation = 0
Minimum injected packet rate = 0.012 (at node 61)
Average injected packet rate = 0.0246094
Maximum injected packet rate = 0.035 (at node 6)
Minimum accepted packet rate = 0.011 (at node 2)
Average accepted packet rate = 0.0234375
Maximum accepted packet rate = 0.034 (at node 12)
Minimum injected flit rate = 0.024 (at node 61)
Average injected flit rate = 0.0492031
Maximum injected flit rate = 0.07 (at node 6)
Minimum accepted flit rate = 0.022 (at node 2)
Average accepted flit rate = 0.0468906
Maximum accepted flit rate = 0.068 (at node 12)
Average injected packet length = 1.99937
Average accepted packet length = 2.00067
Total in-flight flits = 149 (0 measured)
latency change    = 1
throughput change = 1
latency change    = 1
throughput change = 1
0
Class 0:
Minimum packet latency = 18
Average packet latency = 53.1535
Maximum packet latency = 115
Minimum network latency = 18
Average network latency = 52.9827
Maximum network latency = 115
Slowest packet = 7722
Minimum flit latency = 17
Average flit latency = 51.427
Maximum flit latency = 114
Slowest flit = 15444
Minimum fragmentation = 0
Average fragmentation = 1.05921
Maximum fragmentation = 25
Minimum injected packet rate = 0.045 (at node 42)
Average injected packet rate = 0.0552187
Maximum injected packet rate = 0.065 (at node 58)
Minimum accepted packet rate = 0.044 (at node 21)
Average accepted packet rate = 0.0538359
Maximum accepted packet rate = 0.064 (at node 6)
Minimum injected flit rate = 0.09 (at node 42)
Average injected flit rate = 0.110398
Maximum injected flit rate = 0.13 (at node 58)
Minimum accepted flit rate = 0.088 (at node 21)
Average accepted flit rate = 0.107727
Maximum accepted flit rate = 0.128 (at node 6)
Average injected packet length = 1.99929
Average accepted packet length = 2.00102
Total in-flight flits = 349 (0 measured)
Class 1:
Minimum packet latency = 18
Average packet latency = 50.2431
Maximum packet latency = 93
Minimum network latency = 18
Average network latency = 50.2106
Maximum network latency = 93
Slowest packet = 3936
Minimum flit latency = 17
Average flit latency = 49.2126
Maximum flit latency = 92
Slowest flit = 17338
Minimum fragmentation = 0
Average fragmentation = 0
Maximum fragmentation = 0
Minimum injected packet rate = 0.0185 (at node 14)
Average injected packet rate = 0.0252031
Maximum injected packet rate = 0.0355 (at node 6)
Minimum accepted packet rate = 0.018 (at node 49)
Average accepted packet rate = 0.0245234
Maximum accepted packet rate = 0.0335 (at node 57)
Minimum injected flit rate = 0.037 (at node 14)
Average injected flit rate = 0.0503906
Maximum injected flit rate = 0.071 (at node 6)
Minimum accepted flit rate = 0.036 (at node 49)
Average accepted flit rate = 0.0490547
Maximum accepted flit rate = 0.067 (at node 57)
Average injected packet length = 1.99938
Average accepted packet length = 2.00032
Total in-flight flits = 173 (0 measured)
latency change    = 0.00583147
throughput change = 0.0402495
latency change    = 0.0101056
throughput change = 0.0441153
0
Class 0:
Minimum packet latency = 18
Average packet latency = 52.6317
Maximum packet latency = 118
Minimum network latency = 18
Average network latency = 52.4858
Maximum network latency = 116
Slowest packet = 11561
Minimum flit latency = 17
Average flit latency = 50.9483
Maximum flit latency = 115
Slowest flit = 23123
Minimum fragmentation = 0
Average fragmentation = 1.03289
Maximum fragmentation = 34
Minimum injected packet rate = 0.039 (at node 50)
Average injected packet rate = 0.0554219
Maximum injected packet rate = 0.067 (at node 36)
Minimum accepted packet rate = 0.039 (at node 13)
Average accepted packet rate = 0.0555781
Maximum accepted packet rate = 0.069 (at node 53)
Minimum injected flit rate = 0.078 (at node 50)
Average injected flit rate = 0.110875
Maximum injected flit rate = 0.134 (at node 36)
Minimum accepted flit rate = 0.078 (at node 13)
Average accepted flit rate = 0.111172
Maximum accepted flit rate = 0.137 (at node 27)
Average injected packet length = 2.00056
Average accepted packet length = 2.00028
Total in-flight flits = 326 (0 measured)
Class 1:
Minimum packet latency = 18
Average packet latency = 51.1149
Maximum packet latency = 94
Minimum network latency = 18
Average network latency = 51.0928
Maximum network latency = 93
Slowest packet = 10877
Minimum flit latency = 17
Average flit latency = 50.1016
Maximum flit latency = 92
Slowest flit = 21754
Minimum fragmentation = 0
Average fragmentation = 0
Maximum fragmentation = 0
Minimum injected packet rate = 0.013 (at node 0)
Average injected packet rate = 0.024625
Maximum injected packet rate = 0.034 (at node 19)
Minimum accepted packet rate = 0.014 (at node 3)
Average accepted packet rate = 0.02475
Maximum accepted packet rate = 0.034 (at node 0)
Minimum injected flit rate = 0.026 (at node 0)
Average injected flit rate = 0.0492656
Maximum injected flit rate = 0.068 (at node 19)
Minimum accepted flit rate = 0.028 (at node 3)
Average accepted flit rate = 0.0495312
Maximum accepted flit rate = 0.068 (at node 0)
Average injected packet length = 2.00063
Average accepted packet length = 2.00126
Total in-flight flits = 155 (0 measured)
latency change    = 0.00991458
throughput change = 0.0309909
latency change    = 0.0170562
throughput change = 0.00962145
Warmed up ...Time used is 3000 cycles
1
Class 0:
Minimum packet latency = 18
Average packet latency = 52.4472
Maximum packet latency = 104
Minimum network latency = 18
Average network latency = 52.2757
Maximum network latency = 104
Slowest packet = 18530
Minimum flit latency = 17
Average flit latency = 50.9815
Maximum flit latency = 103
Slowest flit = 37060
Minimum fragmentation = 0
Average fragmentation = 1.10107
Maximum fragmentation = 23
Minimum injected packet rate = 0.041 (at node 3)
Average injected packet rate = 0.0542813
Maximum injected packet rate = 0.074 (at node 32)
Minimum accepted packet rate = 0.041 (at node 9)
Average accepted packet rate = 0.053625
Maximum accepted packet rate = 0.074 (at node 31)
Minimum injected flit rate = 0.082 (at node 3)
Average injected flit rate = 0.108484
Maximum injected flit rate = 0.148 (at node 32)
Minimum accepted flit rate = 0.082 (at node 9)
Average accepted flit rate = 0.107313
Maximum accepted flit rate = 0.148 (at node 31)
Average injected packet length = 1.99856
Average accepted packet length = 2.00117
Total in-flight flits = 406 (406 measured)
Class 1:
Minimum packet latency = 18
Average packet latency = 49.9294
Maximum packet latency = 97
Minimum network latency = 18
Average network latency = 49.903
Maximum network latency = 96
Slowest packet = 16772
Minimum flit latency = 17
Average flit latency = 49.1102
Maximum flit latency = 95
Slowest flit = 33544
Minimum fragmentation = 0
Average fragmentation = 0
Maximum fragmentation = 0
Minimum injected packet rate = 0.013 (at node 55)
Average injected packet rate = 0.0250313
Maximum injected packet rate = 0.038 (at node 15)
Minimum accepted packet rate = 0.016 (at node 8)
Average accepted packet rate = 0.0249063
Maximum accepted packet rate = 0.037 (at node 48)
Minimum injected flit rate = 0.026 (at node 55)
Average injected flit rate = 0.0500625
Maximum injected flit rate = 0.076 (at node 15)
Minimum accepted flit rate = 0.032 (at node 8)
Average accepted flit rate = 0.0497812
Maximum accepted flit rate = 0.074 (at node 48)
Average injected packet length = 2
Average accepted packet length = 1.99875
Total in-flight flits = 173 (173 measured)
latency change    = 0.00351869
throughput change = 0.0359639
latency change    = 0.0237441
throughput change = 0.00502197
1
Class 0:
Minimum packet latency = 18
Average packet latency = 52.925
Maximum packet latency = 133
Minimum network latency = 18
Average network latency = 52.7548
Maximum network latency = 132
Slowest packet = 21843
Minimum flit latency = 17
Average flit latency = 51.2911
Maximum flit latency = 129
Slowest flit = 43687
Minimum fragmentation = 0
Average fragmentation = 1.11989
Maximum fragmentation = 36
Minimum injected packet rate = 0.045 (at node 12)
Average injected packet rate = 0.0548125
Maximum injected packet rate = 0.0685 (at node 32)
Minimum accepted packet rate = 0.045 (at node 21)
Average accepted packet rate = 0.0546719
Maximum accepted packet rate = 0.067 (at node 31)
Minimum injected flit rate = 0.09 (at node 12)
Average injected flit rate = 0.109617
Maximum injected flit rate = 0.137 (at node 32)
Minimum accepted flit rate = 0.09 (at node 21)
Average accepted flit rate = 0.109352
Maximum accepted flit rate = 0.134 (at node 31)
Average injected packet length = 1.99986
Average accepted packet length = 2.00014
Total in-flight flits = 361 (361 measured)
Class 1:
Minimum packet latency = 18
Average packet latency = 50.106
Maximum packet latency = 97
Minimum network latency = 18
Average network latency = 50.0787
Maximum network latency = 96
Slowest packet = 16772
Minimum flit latency = 17
Average flit latency = 49.1776
Maximum flit latency = 95
Slowest flit = 33544
Minimum fragmentation = 0
Average fragmentation = 0
Maximum fragmentation = 0
Minimum injected packet rate = 0.017 (at node 55)
Average injected packet rate = 0.0248984
Maximum injected packet rate = 0.0315 (at node 15)
Minimum accepted packet rate = 0.018 (at node 8)
Average accepted packet rate = 0.0250234
Maximum accepted packet rate = 0.032 (at node 48)
Minimum injected flit rate = 0.034 (at node 55)
Average injected flit rate = 0.0497891
Maximum injected flit rate = 0.063 (at node 15)
Minimum accepted flit rate = 0.036 (at node 8)
Average accepted flit rate = 0.0500234
Maximum accepted flit rate = 0.064 (at node 48)
Average injected packet length = 1.99969
Average accepted packet length = 1.99906
Total in-flight flits = 126 (126 measured)
latency change    = 0.00902939
throughput change = 0.0186469
latency change    = 0.00352415
throughput change = 0.00484148
1
Class 0:
Minimum packet latency = 18
Average packet latency = 52.8601
Maximum packet latency = 133
Minimum network latency = 18
Average network latency = 52.6898
Maximum network latency = 132
Slowest packet = 21843
Minimum flit latency = 16
Average flit latency = 51.2044
Maximum flit latency = 129
Slowest flit = 43687
Minimum fragmentation = 0
Average fragmentation = 1.08563
Maximum fragmentation = 36
Minimum injected packet rate = 0.0443333 (at node 10)
Average injected packet rate = 0.0549219
Maximum injected packet rate = 0.0663333 (at node 61)
Minimum accepted packet rate = 0.0443333 (at node 53)
Average accepted packet rate = 0.0546979
Maximum accepted packet rate = 0.0646667 (at node 2)
Minimum injected flit rate = 0.0886667 (at node 10)
Average injected flit rate = 0.109833
Maximum injected flit rate = 0.132667 (at node 61)
Minimum accepted flit rate = 0.089 (at node 53)
Average accepted flit rate = 0.109417
Maximum accepted flit rate = 0.129333 (at node 2)
Average injected packet length = 1.99981
Average accepted packet length = 2.00038
Total in-flight flits = 408 (408 measured)
Class 1:
Minimum packet latency = 18
Average packet latency = 50.1315
Maximum packet latency = 97
Minimum network latency = 18
Average network latency = 50.1041
Maximum network latency = 96
Slowest packet = 16772
Minimum flit latency = 17
Average flit latency = 49.1694
Maximum flit latency = 95
Slowest flit = 33544
Minimum fragmentation = 0
Average fragmentation = 0
Maximum fragmentation = 0
Minimum injected packet rate = 0.0176667 (at node 55)
Average injected packet rate = 0.0253906
Maximum injected packet rate = 0.0333333 (at node 60)
Minimum accepted packet rate = 0.0183333 (at node 8)
Average accepted packet rate = 0.0253281
Maximum accepted packet rate = 0.033 (at node 3)
Minimum injected flit rate = 0.0353333 (at node 55)
Average injected flit rate = 0.0507812
Maximum injected flit rate = 0.0666667 (at node 60)
Minimum accepted flit rate = 0.0366667 (at node 8)
Average accepted flit rate = 0.050651
Maximum accepted flit rate = 0.066 (at node 3)
Average injected packet length = 2
Average accepted packet length = 1.99979
Total in-flight flits = 180 (180 measured)
latency change    = 0.00122891
throughput change = 0.000595011
latency change    = 0.000509182
throughput change = 0.0123907
Draining all recorded packets ...
Draining remaining packets ...
Time taken is 6159 cycles
====== Traffic class 0 ======
Overall minimum packet latency = 18 (1 samples)
Overall average packet latency = 53.0435 (1 samples)
Overall maximum packet latency = 133 (1 samples)
Overall minimum network latency = 18 (1 samples)
Overall average network latency = 52.8714 (1 samples)
Overall maximum network latency = 132 (1 samples)
Overall minimum flit latency = 16 (1 samples)
Overall average flit latency = 51.3572 (1 samples)
Overall maximum flit latency = 129 (1 samples)
Overall minimum fragmentation = 0 (1 samples)
Overall average fragmentation = 1.09474 (1 samples)
Overall maximum fragmentation = 36 (1 samples)
Overall minimum injected packet rate = 0.0443333 (1 samples)
Overall average injected packet rate = 0.0549219 (1 samples)
Overall maximum injected packet rate = 0.0663333 (1 samples)
Overall minimum accepted packet rate = 0.0443333 (1 samples)
Overall average accepted packet rate = 0.0546979 (1 samples)
Overall maximum accepted packet rate = 0.0646667 (1 samples)
Overall minimum injected flit rate = 0.0886667 (1 samples)
Overall average injected flit rate = 0.109833 (1 samples)
Overall maximum injected flit rate = 0.132667 (1 samples)
Overall minimum accepted flit rate = 0.089 (1 samples)
Overall average accepted flit rate = 0.109417 (1 samples)
Overall maximum accepted flit rate = 0.129333 (1 samples)
Overall average injected packet size = 1.99981 (1 samples)
Overall average accepted packet size = 2.00038 (1 samples)
Overall average hops = 9.01081 (1 samples)
====== Traffic class 1 ======
Overall minimum packet latency = 18 (1 samples)
Overall average packet latency = 50.2334 (1 samples)
Overall maximum packet latency = 97 (1 samples)
Overall minimum network latency = 18 (1 samples)
Overall average network latency = 50.2064 (1 samples)
Overall maximum network latency = 96 (1 samples)
Overall minimum flit latency = 17 (1 samples)
Overall average flit latency = 49.2372 (1 samples)
Overall maximum flit latency = 95 (1 samples)
Overall minimum fragmentation = 0 (1 samples)
Overall average fragmentation = 0 (1 samples)
Overall maximum fragmentation = 0 (1 samples)
Overall minimum injected packet rate = 0.0176667 (1 samples)
Overall average injected packet rate = 0.0253906 (1 samples)
Overall maximum injected packet rate = 0.0333333 (1 samples)
Overall minimum accepted packet rate = 0.0183333 (1 samples)
Overall average accepted packet rate = 0.0253281 (1 samples)
Overall maximum accepted packet rate = 0.033 (1 samples)
Overall minimum injected flit rate = 0.0353333 (1 samples)
Overall average injected flit rate = 0.0507812 (1 samples)
Overall maximum injected flit rate = 0.0666667 (1 samples)
Overall minimum accepted flit rate = 0.0366667 (1 samples)
Overall average accepted flit rate = 0.050651 (1 samples)
Overall maximum accepted flit rate = 0.066 (1 samples)
Overall average injected packet size = 2 (1 samples)
Overall average accepted packet size = 1.99979 (1 samples)
Overall average hops = 8.95405 (1 samples)
Total run time 17.516
