BEGIN Configuration File: ./examples/project_inputs/config-iqevc_tp-transpose_c1ir-0.05_c0ir-0.39
//
// EVC Router Config File -         
//
// Jason Deng, Mike Wang        
//        

//
// Flow control
//

num_vcs     = 5;
vc_buf_size = 6;

wait_for_tail_credit = 0;

vc_allocator = select;
sw_allocator = select;
alloc_iters  = 2;

credit_delay   = 2;
routing_delay  = 1;
vc_alloc_delay = 1;
sw_alloc_delay = 1;
st_final_delay = 1;

input_speedup     = 1;
output_speedup    = 1;
internal_speedup  = 1.0;

//
// Traffic
//

sim_type = latency;

warmup_periods = 3;
sample_period  = 1000;
sim_count = 1;

//
//topoogy
//

topology = mesh;
k  = 8;
n  = 2;

//
// Routing
//

router = iqevc;
routing_function = dor;

packet_size = 2;
use_read_write = 0;

traffic  = transpose;
injection_rate = {0.39,0.05};
injection_rate_uses_flits = 1;

classes = 2;
class_priority = {0,1};
priority = class;

noq = 0;
hold_switch_for_packet = 0;
vc_prioritize_empty = 0;

//
// express virtual channel settings
//

evc = 1;
num_evcs = 1;
evc_prioritized_class = 1;
selective_vc_request = 1;
hold_switch_for_evc_packet = 1;
evc_next_route = 1;

END Configuration File: ./examples/project_inputs/config-iqevc_tp-transpose_c1ir-0.05_c0ir-0.39
0
Class 0:
Minimum packet latency = 8
Average packet latency = 110.042
Maximum packet latency = 929
Minimum network latency = 8
Average network latency = 91.512
Maximum network latency = 929
Slowest packet = 717
Minimum flit latency = 5
Average flit latency = 89.5875
Maximum flit latency = 928
Slowest flit = 1434
Minimum fragmentation = 0
Average fragmentation = 1.52087
Maximum fragmentation = 31
Minimum injected packet rate = 0.024 (at node 5)
Average injected packet rate = 0.119844
Maximum injected packet rate = 0.221 (at node 55)
Minimum accepted packet rate = 0.006 (at node 15)
Average accepted packet rate = 0.102594
Maximum accepted packet rate = 0.216 (at node 18)
Minimum injected flit rate = 0.048 (at node 5)
Average injected flit rate = 0.239516
Maximum injected flit rate = 0.441 (at node 55)
Minimum accepted flit rate = 0.012 (at node 15)
Average accepted flit rate = 0.205531
Maximum accepted flit rate = 0.432 (at node 18)
Average injected packet length = 1.99857
Average accepted packet length = 2.00335
Total in-flight flits = 2246 (0 measured)
Class 1:
Minimum packet latency = 8
Average packet latency = 89.2658
Maximum packet latency = 700
Minimum network latency = 8
Average network latency = 78.6703
Maximum network latency = 700
Slowest packet = 1405
Minimum flit latency = 7
Average flit latency = 77.1139
Maximum flit latency = 699
Slowest flit = 2810
Minimum fragmentation = 0
Average fragmentation = 0
Maximum fragmentation = 0
Minimum injected packet rate = 0.006 (at node 7)
Average injected packet rate = 0.0230625
Maximum injected packet rate = 0.037 (at node 55)
Minimum accepted packet rate = 0.002 (at node 7)
Average accepted packet rate = 0.0198125
Maximum accepted packet rate = 0.037 (at node 62)
Minimum injected flit rate = 0.012 (at node 7)
Average injected flit rate = 0.0460469
Maximum injected flit rate = 0.074 (at node 55)
Minimum accepted flit rate = 0.004 (at node 7)
Average accepted flit rate = 0.0396562
Maximum accepted flit rate = 0.074 (at node 62)
Average injected packet length = 1.99661
Average accepted packet length = 2.00158
Total in-flight flits = 444 (0 measured)
latency change    = 1
throughput change = 1
latency change    = 1
throughput change = 1
0
Class 0:
Minimum packet latency = 8
Average packet latency = 190.102
Maximum packet latency = 1827
Minimum network latency = 8
Average network latency = 115.819
Maximum network latency = 1825
Slowest packet = 1206
Minimum flit latency = 5
Average flit latency = 113.626
Maximum flit latency = 1824
Slowest flit = 2412
Minimum fragmentation = 0
Average fragmentation = 1.66368
Maximum fragmentation = 57
Minimum injected packet rate = 0.0125 (at node 57)
Average injected packet rate = 0.110805
Maximum injected packet rate = 0.2205 (at node 18)
Minimum accepted packet rate = 0.0045 (at node 15)
Average accepted packet rate = 0.101859
Maximum accepted packet rate = 0.2195 (at node 18)
Minimum injected flit rate = 0.025 (at node 57)
Average injected flit rate = 0.221523
Maximum injected flit rate = 0.441 (at node 18)
Minimum accepted flit rate = 0.009 (at node 15)
Average accepted flit rate = 0.203828
Maximum accepted flit rate = 0.44 (at node 18)
Average injected packet length = 1.99922
Average accepted packet length = 2.00107
Total in-flight flits = 2348 (0 measured)
Class 1:
Minimum packet latency = 8
Average packet latency = 139.645
Maximum packet latency = 1623
Minimum network latency = 8
Average network latency = 103.482
Maximum network latency = 1623
Slowest packet = 2545
Minimum flit latency = 7
Average flit latency = 101.788
Maximum flit latency = 1622
Slowest flit = 5090
Minimum fragmentation = 0
Average fragmentation = 0
Maximum fragmentation = 0
Minimum injected packet rate = 0.004 (at node 7)
Average injected packet rate = 0.0236797
Maximum injected packet rate = 0.0345 (at node 24)
Minimum accepted packet rate = 0.0015 (at node 15)
Average accepted packet rate = 0.0221406
Maximum accepted packet rate = 0.034 (at node 3)
Minimum injected flit rate = 0.008 (at node 7)
Average injected flit rate = 0.0473281
Maximum injected flit rate = 0.069 (at node 24)
Minimum accepted flit rate = 0.003 (at node 15)
Average accepted flit rate = 0.0442969
Maximum accepted flit rate = 0.068 (at node 3)
Average injected packet length = 1.99868
Average accepted packet length = 2.00071
Total in-flight flits = 420 (0 measured)
latency change    = 0.421141
throughput change = 0.00835569
latency change    = 0.360767
throughput change = 0.104762
0
Class 0:
Minimum packet latency = 8
Average packet latency = 446.979
Maximum packet latency = 2905
Minimum network latency = 8
Average network latency = 156.936
Maximum network latency = 2905
Slowest packet = 1242
Minimum flit latency = 5
Average flit latency = 154.788
Maximum flit latency = 2904
Slowest flit = 2484
Minimum fragmentation = 0
Average fragmentation = 1.84119
Maximum fragmentation = 48
Minimum injected packet rate = 0 (at node 7)
Average injected packet rate = 0.101391
Maximum injected packet rate = 0.208 (at node 16)
Minimum accepted packet rate = 0.001 (at node 15)
Average accepted packet rate = 0.101734
Maximum accepted packet rate = 0.209 (at node 10)
Minimum injected flit rate = 0 (at node 7)
Average injected flit rate = 0.202797
Maximum injected flit rate = 0.416 (at node 16)
Minimum accepted flit rate = 0.002 (at node 15)
Average accepted flit rate = 0.203531
Maximum accepted flit rate = 0.418 (at node 10)
Average injected packet length = 2.00015
Average accepted packet length = 2.00061
Total in-flight flits = 2300 (0 measured)
Class 1:
Minimum packet latency = 8
Average packet latency = 231.282
Maximum packet latency = 2501
Minimum network latency = 8
Average network latency = 137.568
Maximum network latency = 2309
Slowest packet = 2655
Minimum flit latency = 7
Average flit latency = 135.649
Maximum flit latency = 2308
Slowest flit = 4074
Minimum fragmentation = 0
Average fragmentation = 0
Maximum fragmentation = 0
Minimum injected packet rate = 0.001 (at node 7)
Average injected packet rate = 0.0249375
Maximum injected packet rate = 0.07 (at node 6)
Minimum accepted packet rate = 0 (at node 56)
Average accepted packet rate = 0.0246875
Maximum accepted packet rate = 0.08 (at node 48)
Minimum injected flit rate = 0.002 (at node 7)
Average injected flit rate = 0.0499062
Maximum injected flit rate = 0.141 (at node 6)
Minimum accepted flit rate = 0 (at node 56)
Average accepted flit rate = 0.0493594
Maximum accepted flit rate = 0.16 (at node 48)
Average injected packet length = 2.00125
Average accepted packet length = 1.99937
Total in-flight flits = 463 (0 measured)
latency change    = 0.574697
throughput change = 0.00145862
latency change    = 0.396212
throughput change = 0.102564
Average latency for class 0 exceeded 500 cycles. Aborting simulation.
Too many sample periods needed to converge
Simulation unstable, ending ...
Total run time 8.57056
