BEGIN Configuration File: ./examples/project_inputs/config-iqevc_tp-transpose_c1ir-0.05_c0ir-0.35
//
// EVC Router Config File -         
//
// Jason Deng, Mike Wang        
//        

//
// Flow control
//

num_vcs     = 5;
vc_buf_size = 6;

wait_for_tail_credit = 0;

vc_allocator = select;
sw_allocator = select;
alloc_iters  = 2;

credit_delay   = 2;
routing_delay  = 1;
vc_alloc_delay = 1;
sw_alloc_delay = 1;
st_final_delay = 1;

input_speedup     = 1;
output_speedup    = 1;
internal_speedup  = 1.0;

//
// Traffic
//

sim_type = latency;

warmup_periods = 3;
sample_period  = 1000;
sim_count = 1;

//
//topoogy
//

topology = mesh;
k  = 8;
n  = 2;

//
// Routing
//

router = iqevc;
routing_function = dor;

packet_size = 2;
use_read_write = 0;

traffic  = transpose;
injection_rate = {0.35,0.05};
injection_rate_uses_flits = 1;

classes = 2;
class_priority = {0,1};
priority = class;

noq = 0;
hold_switch_for_packet = 0;
vc_prioritize_empty = 0;

//
// express virtual channel settings
//

evc = 1;
num_evcs = 1;
evc_prioritized_class = 1;
selective_vc_request = 1;
hold_switch_for_evc_packet = 1;
evc_next_route = 1;

END Configuration File: ./examples/project_inputs/config-iqevc_tp-transpose_c1ir-0.05_c0ir-0.35
0
Class 0:
Minimum packet latency = 8
Average packet latency = 101.896
Maximum packet latency = 941
Minimum network latency = 8
Average network latency = 90.1343
Maximum network latency = 941
Slowest packet = 590
Minimum flit latency = 5
Average flit latency = 88.2086
Maximum flit latency = 940
Slowest flit = 1180
Minimum fragmentation = 0
Average fragmentation = 1.48064
Maximum fragmentation = 49
Minimum injected packet rate = 0.025 (at node 5)
Average injected packet rate = 0.114375
Maximum injected packet rate = 0.192 (at node 36)
Minimum accepted packet rate = 0.005 (at node 48)
Average accepted packet rate = 0.0972656
Maximum accepted packet rate = 0.191 (at node 36)
Minimum injected flit rate = 0.05 (at node 5)
Average injected flit rate = 0.228609
Maximum injected flit rate = 0.384 (at node 36)
Minimum accepted flit rate = 0.01 (at node 48)
Average accepted flit rate = 0.194734
Maximum accepted flit rate = 0.382 (at node 36)
Average injected packet length = 1.99877
Average accepted packet length = 2.00209
Total in-flight flits = 2251 (0 measured)
Class 1:
Minimum packet latency = 8
Average packet latency = 87.5089
Maximum packet latency = 820
Minimum network latency = 8
Average network latency = 75.3516
Maximum network latency = 820
Slowest packet = 1659
Minimum flit latency = 7
Average flit latency = 73.9619
Maximum flit latency = 819
Slowest flit = 3318
Minimum fragmentation = 0
Average fragmentation = 0
Maximum fragmentation = 0
Minimum injected packet rate = 0.006 (at node 56)
Average injected packet rate = 0.0233906
Maximum injected packet rate = 0.038 (at node 49)
Minimum accepted packet rate = 0.002 (at node 40)
Average accepted packet rate = 0.0202656
Maximum accepted packet rate = 0.036 (at node 47)
Minimum injected flit rate = 0.012 (at node 56)
Average injected flit rate = 0.0467188
Maximum injected flit rate = 0.076 (at node 49)
Minimum accepted flit rate = 0.004 (at node 40)
Average accepted flit rate = 0.0405781
Maximum accepted flit rate = 0.072 (at node 47)
Average injected packet length = 1.99733
Average accepted packet length = 2.00231
Total in-flight flits = 431 (0 measured)
latency change    = 1
throughput change = 1
latency change    = 1
throughput change = 1
0
Class 0:
Minimum packet latency = 8
Average packet latency = 178.22
Maximum packet latency = 1886
Minimum network latency = 8
Average network latency = 117.617
Maximum network latency = 1886
Slowest packet = 696
Minimum flit latency = 5
Average flit latency = 115.569
Maximum flit latency = 1885
Slowest flit = 1392
Minimum fragmentation = 0
Average fragmentation = 1.63723
Maximum fragmentation = 63
Minimum injected packet rate = 0.014 (at node 6)
Average injected packet rate = 0.106055
Maximum injected packet rate = 0.1935 (at node 0)
Minimum accepted packet rate = 0.004 (at node 48)
Average accepted packet rate = 0.0973203
Maximum accepted packet rate = 0.1925 (at node 0)
Minimum injected flit rate = 0.0275 (at node 6)
Average injected flit rate = 0.212031
Maximum injected flit rate = 0.387 (at node 0)
Minimum accepted flit rate = 0.008 (at node 48)
Average accepted flit rate = 0.194758
Maximum accepted flit rate = 0.385 (at node 0)
Average injected packet length = 1.99926
Average accepted packet length = 2.0012
Total in-flight flits = 2287 (0 measured)
Class 1:
Minimum packet latency = 8
Average packet latency = 138.68
Maximum packet latency = 1600
Minimum network latency = 8
Average network latency = 100.618
Maximum network latency = 1573
Slowest packet = 2712
Minimum flit latency = 7
Average flit latency = 99.0098
Maximum flit latency = 1572
Slowest flit = 5424
Minimum fragmentation = 0
Average fragmentation = 0
Maximum fragmentation = 0
Minimum injected packet rate = 0.004 (at node 56)
Average injected packet rate = 0.0244453
Maximum injected packet rate = 0.037 (at node 63)
Minimum accepted packet rate = 0.0015 (at node 7)
Average accepted packet rate = 0.0227344
Maximum accepted packet rate = 0.037 (at node 63)
Minimum injected flit rate = 0.008 (at node 56)
Average injected flit rate = 0.0488516
Maximum injected flit rate = 0.074 (at node 63)
Minimum accepted flit rate = 0.003 (at node 7)
Average accepted flit rate = 0.0454766
Maximum accepted flit rate = 0.074 (at node 63)
Average injected packet length = 1.9984
Average accepted packet length = 2.00034
Total in-flight flits = 463 (0 measured)
latency change    = 0.428255
throughput change = 0.000120342
latency change    = 0.368986
throughput change = 0.107713
0
Class 0:
Minimum packet latency = 8
Average packet latency = 417.013
Maximum packet latency = 2889
Minimum network latency = 8
Average network latency = 159.539
Maximum network latency = 2888
Slowest packet = 999
Minimum flit latency = 5
Average flit latency = 157.227
Maximum flit latency = 2887
Slowest flit = 1998
Minimum fragmentation = 0
Average fragmentation = 1.79002
Maximum fragmentation = 69
Minimum injected packet rate = 0 (at node 7)
Average injected packet rate = 0.0965
Maximum injected packet rate = 0.199 (at node 36)
Minimum accepted packet rate = 0.002 (at node 15)
Average accepted packet rate = 0.0970312
Maximum accepted packet rate = 0.197 (at node 36)
Minimum injected flit rate = 0 (at node 7)
Average injected flit rate = 0.192953
Maximum injected flit rate = 0.397 (at node 36)
Minimum accepted flit rate = 0.004 (at node 15)
Average accepted flit rate = 0.194031
Maximum accepted flit rate = 0.394 (at node 36)
Average injected packet length = 1.99951
Average accepted packet length = 1.99968
Total in-flight flits = 2219 (0 measured)
Class 1:
Minimum packet latency = 8
Average packet latency = 184.505
Maximum packet latency = 2496
Minimum network latency = 8
Average network latency = 126.654
Maximum network latency = 2020
Slowest packet = 4128
Minimum flit latency = 7
Average flit latency = 124.847
Maximum flit latency = 2019
Slowest flit = 8256
Minimum fragmentation = 0
Average fragmentation = 0
Maximum fragmentation = 0
Minimum injected packet rate = 0.003 (at node 7)
Average injected packet rate = 0.0243281
Maximum injected packet rate = 0.059 (at node 57)
Minimum accepted packet rate = 0 (at node 7)
Average accepted packet rate = 0.0246719
Maximum accepted packet rate = 0.061 (at node 15)
Minimum injected flit rate = 0.006 (at node 7)
Average injected flit rate = 0.0486406
Maximum injected flit rate = 0.118 (at node 57)
Minimum accepted flit rate = 0 (at node 7)
Average accepted flit rate = 0.0493281
Maximum accepted flit rate = 0.122 (at node 15)
Average injected packet length = 1.99936
Average accepted packet length = 1.99937
Total in-flight flits = 422 (0 measured)
latency change    = 0.572627
throughput change = 0.00374456
latency change    = 0.24837
throughput change = 0.0780805
Average latency for class 0 exceeded 500 cycles. Aborting simulation.
Too many sample periods needed to converge
Simulation unstable, ending ...
Total run time 7.76557
