BEGIN Configuration File: ./examples/project_inputs/config-iqevc_tp-uniform_c1ir-0.05_c0ir-0.05
//
// EVC Router Config File -         
//
// Jason Deng, Mike Wang        
//        

//
// Flow control
//

num_vcs     = 5;
vc_buf_size = 6;

wait_for_tail_credit = 0;

vc_allocator = select;
sw_allocator = select;
alloc_iters  = 2;

credit_delay   = 2;
routing_delay  = 1;
vc_alloc_delay = 1;
sw_alloc_delay = 1;
st_final_delay = 1;

input_speedup     = 1;
output_speedup    = 1;
internal_speedup  = 1.0;

//
// Traffic
//

sim_type = latency;

warmup_periods = 3;
sample_period  = 1000;
sim_count = 1;

//
//topoogy
//

topology = mesh;
k  = 8;
n  = 2;

//
// Routing
//

router = iqevc;
routing_function = dor;

packet_size = 2;
use_read_write = 0;

traffic  = uniform;
injection_rate = {0.05,0.05};
injection_rate_uses_flits = 1;

classes = 2;
class_priority = {0,1};
priority = class;

noq = 0;
hold_switch_for_packet = 0;
vc_prioritize_empty = 0;

//
// express virtual channel settings
//

evc = 1;
num_evcs = 1;
evc_prioritized_class = 1;
selective_vc_request = 1;
hold_switch_for_evc_packet = 1;
evc_next_route = 1;

END Configuration File: ./examples/project_inputs/config-iqevc_tp-uniform_c1ir-0.05_c0ir-0.05
0
Class 0:
Minimum packet latency = 8
Average packet latency = 34.8102
Maximum packet latency = 75
Minimum network latency = 8
Average network latency = 34.6753
Maximum network latency = 75
Slowest packet = 2224
Minimum flit latency = 7
Average flit latency = 33.5055
Maximum flit latency = 74
Slowest flit = 4448
Minimum fragmentation = 0
Average fragmentation = 0.270487
Maximum fragmentation = 8
Minimum injected packet rate = 0.012 (at node 22)
Average injected packet rate = 0.0264062
Maximum injected packet rate = 0.042 (at node 52)
Minimum accepted packet rate = 0.012 (at node 17)
Average accepted packet rate = 0.0253594
Maximum accepted packet rate = 0.036 (at node 47)
Minimum injected flit rate = 0.024 (at node 22)
Average injected flit rate = 0.0527813
Maximum injected flit rate = 0.084 (at node 52)
Minimum accepted flit rate = 0.024 (at node 17)
Average accepted flit rate = 0.0507812
Maximum accepted flit rate = 0.072 (at node 47)
Average injected packet length = 1.99882
Average accepted packet length = 2.00246
Total in-flight flits = 130 (0 measured)
Class 1:
Minimum packet latency = 8
Average packet latency = 35.084
Maximum packet latency = 78
Minimum network latency = 8
Average network latency = 35.0643
Maximum network latency = 78
Slowest packet = 2046
Minimum flit latency = 7
Average flit latency = 34.0728
Maximum flit latency = 77
Slowest flit = 4092
Minimum fragmentation = 0
Average fragmentation = 0
Maximum fragmentation = 0
Minimum injected packet rate = 0.012 (at node 61)
Average injected packet rate = 0.0245469
Maximum injected packet rate = 0.036 (at node 21)
Minimum accepted packet rate = 0.012 (at node 59)
Average accepted packet rate = 0.0238125
Maximum accepted packet rate = 0.039 (at node 5)
Minimum injected flit rate = 0.024 (at node 61)
Average injected flit rate = 0.0490781
Maximum injected flit rate = 0.071 (at node 21)
Minimum accepted flit rate = 0.024 (at node 59)
Average accepted flit rate = 0.0476562
Maximum accepted flit rate = 0.078 (at node 5)
Average injected packet length = 1.99936
Average accepted packet length = 2.00131
Total in-flight flits = 92 (0 measured)
latency change    = 1
throughput change = 1
latency change    = 1
throughput change = 1
0
Class 0:
Minimum packet latency = 8
Average packet latency = 34.872
Maximum packet latency = 81
Minimum network latency = 8
Average network latency = 34.7458
Maximum network latency = 81
Slowest packet = 3881
Minimum flit latency = 7
Average flit latency = 33.5743
Maximum flit latency = 80
Slowest flit = 7763
Minimum fragmentation = 0
Average fragmentation = 0.287566
Maximum fragmentation = 11
Minimum injected packet rate = 0.013 (at node 22)
Average injected packet rate = 0.0257031
Maximum injected packet rate = 0.0355 (at node 56)
Minimum accepted packet rate = 0.017 (at node 5)
Average accepted packet rate = 0.0253203
Maximum accepted packet rate = 0.034 (at node 6)
Minimum injected flit rate = 0.026 (at node 22)
Average injected flit rate = 0.0513984
Maximum injected flit rate = 0.071 (at node 56)
Minimum accepted flit rate = 0.034 (at node 5)
Average accepted flit rate = 0.0506875
Maximum accepted flit rate = 0.068 (at node 6)
Average injected packet length = 1.9997
Average accepted packet length = 2.00185
Total in-flight flits = 92 (0 measured)
Class 1:
Minimum packet latency = 8
Average packet latency = 35.2565
Maximum packet latency = 81
Minimum network latency = 8
Average network latency = 35.232
Maximum network latency = 81
Slowest packet = 4883
Minimum flit latency = 7
Average flit latency = 34.2298
Maximum flit latency = 80
Slowest flit = 9766
Minimum fragmentation = 0
Average fragmentation = 0
Maximum fragmentation = 0
Minimum injected packet rate = 0.0175 (at node 57)
Average injected packet rate = 0.0247344
Maximum injected packet rate = 0.0315 (at node 1)
Minimum accepted packet rate = 0.017 (at node 15)
Average accepted packet rate = 0.0242422
Maximum accepted packet rate = 0.035 (at node 5)
Minimum injected flit rate = 0.035 (at node 57)
Average injected flit rate = 0.0494531
Maximum injected flit rate = 0.063 (at node 1)
Minimum accepted flit rate = 0.034 (at node 15)
Average accepted flit rate = 0.0485078
Maximum accepted flit rate = 0.07 (at node 5)
Average injected packet length = 1.99937
Average accepted packet length = 2.00097
Total in-flight flits = 123 (0 measured)
latency change    = 0.00177005
throughput change = 0.00184957
latency change    = 0.00489374
throughput change = 0.0175552
0
Class 0:
Minimum packet latency = 8
Average packet latency = 35.6161
Maximum packet latency = 84
Minimum network latency = 8
Average network latency = 35.4832
Maximum network latency = 84
Slowest packet = 8707
Minimum flit latency = 7
Average flit latency = 34.2923
Maximum flit latency = 83
Slowest flit = 17414
Minimum fragmentation = 0
Average fragmentation = 0.313548
Maximum fragmentation = 7
Minimum injected packet rate = 0.016 (at node 25)
Average injected packet rate = 0.0242188
Maximum injected packet rate = 0.034 (at node 20)
Minimum accepted packet rate = 0.013 (at node 22)
Average accepted packet rate = 0.0242188
Maximum accepted packet rate = 0.036 (at node 54)
Minimum injected flit rate = 0.032 (at node 25)
Average injected flit rate = 0.0484531
Maximum injected flit rate = 0.068 (at node 20)
Minimum accepted flit rate = 0.026 (at node 22)
Average accepted flit rate = 0.048375
Maximum accepted flit rate = 0.072 (at node 54)
Average injected packet length = 2.00065
Average accepted packet length = 1.99742
Total in-flight flits = 96 (0 measured)
Class 1:
Minimum packet latency = 8
Average packet latency = 35.6844
Maximum packet latency = 78
Minimum network latency = 8
Average network latency = 35.6629
Maximum network latency = 78
Slowest packet = 7618
Minimum flit latency = 7
Average flit latency = 34.6636
Maximum flit latency = 77
Slowest flit = 15236
Minimum fragmentation = 0
Average fragmentation = 0
Maximum fragmentation = 0
Minimum injected packet rate = 0.01 (at node 48)
Average injected packet rate = 0.0245781
Maximum injected packet rate = 0.042 (at node 18)
Minimum accepted packet rate = 0.012 (at node 4)
Average accepted packet rate = 0.0246563
Maximum accepted packet rate = 0.035 (at node 33)
Minimum injected flit rate = 0.02 (at node 48)
Average injected flit rate = 0.0491875
Maximum injected flit rate = 0.084 (at node 18)
Minimum accepted flit rate = 0.024 (at node 4)
Average accepted flit rate = 0.0492812
Maximum accepted flit rate = 0.07 (at node 43)
Average injected packet length = 2.00127
Average accepted packet length = 1.99873
Total in-flight flits = 115 (0 measured)
latency change    = 0.0208944
throughput change = 0.0478036
latency change    = 0.0119908
throughput change = 0.0156944
Warmed up ...Time used is 3000 cycles
1
Class 0:
Minimum packet latency = 8
Average packet latency = 34.5764
Maximum packet latency = 79
Minimum network latency = 8
Average network latency = 34.4696
Maximum network latency = 79
Slowest packet = 10229
Minimum flit latency = 7
Average flit latency = 33.5486
Maximum flit latency = 78
Slowest flit = 22290
Minimum fragmentation = 0
Average fragmentation = 0.341561
Maximum fragmentation = 7
Minimum injected packet rate = 0.015 (at node 44)
Average injected packet rate = 0.0243281
Maximum injected packet rate = 0.036 (at node 46)
Minimum accepted packet rate = 0.016 (at node 16)
Average accepted packet rate = 0.0241875
Maximum accepted packet rate = 0.035 (at node 50)
Minimum injected flit rate = 0.03 (at node 44)
Average injected flit rate = 0.048625
Maximum injected flit rate = 0.072 (at node 46)
Minimum accepted flit rate = 0.032 (at node 16)
Average accepted flit rate = 0.0483906
Maximum accepted flit rate = 0.07 (at node 50)
Average injected packet length = 1.99872
Average accepted packet length = 2.00065
Total in-flight flits = 115 (115 measured)
Class 1:
Minimum packet latency = 8
Average packet latency = 35.7354
Maximum packet latency = 82
Minimum network latency = 8
Average network latency = 35.706
Maximum network latency = 82
Slowest packet = 11483
Minimum flit latency = 7
Average flit latency = 34.9081
Maximum flit latency = 81
Slowest flit = 22966
Minimum fragmentation = 0
Average fragmentation = 0
Maximum fragmentation = 0
Minimum injected packet rate = 0.013 (at node 58)
Average injected packet rate = 0.0260625
Maximum injected packet rate = 0.039 (at node 0)
Minimum accepted packet rate = 0.016 (at node 36)
Average accepted packet rate = 0.0258281
Maximum accepted packet rate = 0.039 (at node 39)
Minimum injected flit rate = 0.026 (at node 58)
Average injected flit rate = 0.0520781
Maximum injected flit rate = 0.078 (at node 0)
Minimum accepted flit rate = 0.032 (at node 36)
Average accepted flit rate = 0.0516719
Maximum accepted flit rate = 0.078 (at node 39)
Average injected packet length = 1.9982
Average accepted packet length = 2.0006
Total in-flight flits = 144 (144 measured)
latency change    = 0.030071
throughput change = 0.000322893
latency change    = 0.00142751
throughput change = 0.0462655
1
Class 0:
Minimum packet latency = 8
Average packet latency = 35.091
Maximum packet latency = 80
Minimum network latency = 8
Average network latency = 34.9855
Maximum network latency = 80
Slowest packet = 14557
Minimum flit latency = 7
Average flit latency = 33.9434
Maximum flit latency = 79
Slowest flit = 29114
Minimum fragmentation = 0
Average fragmentation = 0.299548
Maximum fragmentation = 7
Minimum injected packet rate = 0.016 (at node 44)
Average injected packet rate = 0.024625
Maximum injected packet rate = 0.032 (at node 48)
Minimum accepted packet rate = 0.016 (at node 16)
Average accepted packet rate = 0.0245859
Maximum accepted packet rate = 0.0325 (at node 10)
Minimum injected flit rate = 0.032 (at node 44)
Average injected flit rate = 0.0492266
Maximum injected flit rate = 0.064 (at node 48)
Minimum accepted flit rate = 0.032 (at node 16)
Average accepted flit rate = 0.0491719
Maximum accepted flit rate = 0.065 (at node 10)
Average injected packet length = 1.99905
Average accepted packet length = 2
Total in-flight flits = 106 (106 measured)
Class 1:
Minimum packet latency = 8
Average packet latency = 35.5207
Maximum packet latency = 82
Minimum network latency = 8
Average network latency = 35.4964
Maximum network latency = 82
Slowest packet = 11483
Minimum flit latency = 7
Average flit latency = 34.604
Maximum flit latency = 81
Slowest flit = 22966
Minimum fragmentation = 0
Average fragmentation = 0
Maximum fragmentation = 0
Minimum injected packet rate = 0.018 (at node 2)
Average injected packet rate = 0.0254687
Maximum injected packet rate = 0.0335 (at node 26)
Minimum accepted packet rate = 0.019 (at node 4)
Average accepted packet rate = 0.0255234
Maximum accepted packet rate = 0.034 (at node 39)
Minimum injected flit rate = 0.036 (at node 2)
Average injected flit rate = 0.0509375
Maximum injected flit rate = 0.067 (at node 26)
Minimum accepted flit rate = 0.038 (at node 4)
Average accepted flit rate = 0.0510391
Maximum accepted flit rate = 0.068 (at node 39)
Average injected packet length = 2
Average accepted packet length = 1.99969
Total in-flight flits = 102 (102 measured)
latency change    = 0.0146659
throughput change = 0.0158881
latency change    = 0.00604437
throughput change = 0.0123986
1
Class 0:
Minimum packet latency = 8
Average packet latency = 35.1864
Maximum packet latency = 81
Minimum network latency = 8
Average network latency = 35.077
Maximum network latency = 81
Slowest packet = 16116
Minimum flit latency = 7
Average flit latency = 33.992
Maximum flit latency = 80
Slowest flit = 32232
Minimum fragmentation = 0
Average fragmentation = 0.298571
Maximum fragmentation = 7
Minimum injected packet rate = 0.017 (at node 44)
Average injected packet rate = 0.0247396
Maximum injected packet rate = 0.0313333 (at node 48)
Minimum accepted packet rate = 0.016 (at node 16)
Average accepted packet rate = 0.0246771
Maximum accepted packet rate = 0.0326667 (at node 60)
Minimum injected flit rate = 0.034 (at node 44)
Average injected flit rate = 0.049474
Maximum injected flit rate = 0.0626667 (at node 48)
Minimum accepted flit rate = 0.032 (at node 16)
Average accepted flit rate = 0.0493542
Maximum accepted flit rate = 0.0653333 (at node 60)
Average injected packet length = 1.99979
Average accepted packet length = 2
Total in-flight flits = 120 (120 measured)
Class 1:
Minimum packet latency = 8
Average packet latency = 35.3563
Maximum packet latency = 83
Minimum network latency = 8
Average network latency = 35.3313
Maximum network latency = 83
Slowest packet = 17779
Minimum flit latency = 7
Average flit latency = 34.4038
Maximum flit latency = 82
Slowest flit = 35558
Minimum fragmentation = 0
Average fragmentation = 0
Maximum fragmentation = 0
Minimum injected packet rate = 0.0196667 (at node 8)
Average injected packet rate = 0.0258021
Maximum injected packet rate = 0.0323333 (at node 57)
Minimum accepted packet rate = 0.0196667 (at node 58)
Average accepted packet rate = 0.0257552
Maximum accepted packet rate = 0.034 (at node 39)
Minimum injected flit rate = 0.0393333 (at node 8)
Average injected flit rate = 0.051599
Maximum injected flit rate = 0.0646667 (at node 57)
Minimum accepted flit rate = 0.0393333 (at node 58)
Average accepted flit rate = 0.0515104
Maximum accepted flit rate = 0.068 (at node 39)
Average injected packet length = 1.9998
Average accepted packet length = 2
Total in-flight flits = 133 (133 measured)
latency change    = 0.00271034
throughput change = 0.00369354
latency change    = 0.00465184
throughput change = 0.00915066
Draining all recorded packets ...
Draining remaining packets ...
Time taken is 6119 cycles
====== Traffic class 0 ======
Overall minimum packet latency = 8 (1 samples)
Overall average packet latency = 35.2556 (1 samples)
Overall maximum packet latency = 81 (1 samples)
Overall minimum network latency = 8 (1 samples)
Overall average network latency = 35.1451 (1 samples)
Overall maximum network latency = 81 (1 samples)
Overall minimum flit latency = 7 (1 samples)
Overall average flit latency = 34.0529 (1 samples)
Overall maximum flit latency = 80 (1 samples)
Overall minimum fragmentation = 0 (1 samples)
Overall average fragmentation = 0.3 (1 samples)
Overall maximum fragmentation = 7 (1 samples)
Overall minimum injected packet rate = 0.017 (1 samples)
Overall average injected packet rate = 0.0247396 (1 samples)
Overall maximum injected packet rate = 0.0313333 (1 samples)
Overall minimum accepted packet rate = 0.016 (1 samples)
Overall average accepted packet rate = 0.0246771 (1 samples)
Overall maximum accepted packet rate = 0.0326667 (1 samples)
Overall minimum injected flit rate = 0.034 (1 samples)
Overall average injected flit rate = 0.049474 (1 samples)
Overall maximum injected flit rate = 0.0626667 (1 samples)
Overall minimum accepted flit rate = 0.032 (1 samples)
Overall average accepted flit rate = 0.0493542 (1 samples)
Overall maximum accepted flit rate = 0.0653333 (1 samples)
Overall average injected packet size = 1.99979 (1 samples)
Overall average accepted packet size = 2 (1 samples)
Overall average hops = 6.25053 (1 samples)
====== Traffic class 1 ======
Overall minimum packet latency = 8 (1 samples)
Overall average packet latency = 35.4449 (1 samples)
Overall maximum packet latency = 83 (1 samples)
Overall minimum network latency = 8 (1 samples)
Overall average network latency = 35.4199 (1 samples)
Overall maximum network latency = 83 (1 samples)
Overall minimum flit latency = 7 (1 samples)
Overall average flit latency = 34.4524 (1 samples)
Overall maximum flit latency = 82 (1 samples)
Overall minimum fragmentation = 0 (1 samples)
Overall average fragmentation = 0 (1 samples)
Overall maximum fragmentation = 0 (1 samples)
Overall minimum injected packet rate = 0.0196667 (1 samples)
Overall average injected packet rate = 0.0258021 (1 samples)
Overall maximum injected packet rate = 0.0323333 (1 samples)
Overall minimum accepted packet rate = 0.0196667 (1 samples)
Overall average accepted packet rate = 0.0257552 (1 samples)
Overall maximum accepted packet rate = 0.034 (1 samples)
Overall minimum injected flit rate = 0.0393333 (1 samples)
Overall average injected flit rate = 0.051599 (1 samples)
Overall maximum injected flit rate = 0.0646667 (1 samples)
Overall minimum accepted flit rate = 0.0393333 (1 samples)
Overall average accepted flit rate = 0.0515104 (1 samples)
Overall maximum accepted flit rate = 0.068 (1 samples)
Overall average injected packet size = 1.9998 (1 samples)
Overall average accepted packet size = 2 (1 samples)
Overall average hops = 6.26342 (1 samples)
Total run time 8.06779
