BEGIN Configuration File: ./examples/project_inputs/config-iq_tp-uniform_c1ir-0.05_c0ir-0.17_prio-islip
//
// EVC Router Config File -         
//
// Jason Deng, Mike Wang        
//        

//
// Flow control
//

num_vcs     = 5;
vc_buf_size = 6;

wait_for_tail_credit = 0;

vc_allocator = islip;
sw_allocator = islip;
alloc_iters  = 2;

credit_delay   = 2;
routing_delay  = 1;
vc_alloc_delay = 1;
sw_alloc_delay = 1;
st_final_delay = 1;

input_speedup     = 1;
output_speedup    = 1;
internal_speedup  = 1.0;

//
// Traffic
//

sim_type = latency;

warmup_periods = 3;
sample_period  = 1000;
sim_count = 1;

//
//topoogy
//

topology = mesh;
k  = 8;
n  = 2;

//
// Routing
//

router = iq;
routing_function = dor;

packet_size = 2;
use_read_write = 0;

traffic  = uniform;
injection_rate = {0.17,0.05};
injection_rate_uses_flits = 1;

classes = 2;
class_priority = {0,0};
priority = class;

noq = 0;
hold_switch_for_packet = 0;
vc_prioritize_empty = 0;

//
// express virtual channel settings
//

evc = 1;
num_evcs = 1;
evc_prioritized_class = 1;
selective_vc_request = 1;
hold_switch_for_evc_packet = 1;
evc_next_route = 1;

END Configuration File: ./examples/project_inputs/config-iq_tp-uniform_c1ir-0.05_c0ir-0.17_prio-islip
0
Class 0:
Minimum packet latency = 8
Average packet latency = 36.3763
Maximum packet latency = 96
Minimum network latency = 8
Average network latency = 36.2134
Maximum network latency = 96
Slowest packet = 6161
Minimum flit latency = 7
Average flit latency = 34.8376
Maximum flit latency = 95
Slowest flit = 12322
Minimum fragmentation = 0
Average fragmentation = 0.68663
Maximum fragmentation = 11
Minimum injected packet rate = 0.065 (at node 40)
Average injected packet rate = 0.0849375
Maximum injected packet rate = 0.101 (at node 63)
Minimum accepted packet rate = 0.065 (at node 10)
Average accepted packet rate = 0.0819219
Maximum accepted packet rate = 0.105 (at node 34)
Minimum injected flit rate = 0.13 (at node 40)
Average injected flit rate = 0.169766
Maximum injected flit rate = 0.202 (at node 63)
Minimum accepted flit rate = 0.13 (at node 10)
Average accepted flit rate = 0.164
Maximum accepted flit rate = 0.21 (at node 34)
Average injected packet length = 1.99871
Average accepted packet length = 2.00191
Total in-flight flits = 376 (0 measured)
Class 1:
Minimum packet latency = 8
Average packet latency = 36.576
Maximum packet latency = 82
Minimum network latency = 8
Average network latency = 36.5017
Maximum network latency = 82
Slowest packet = 4225
Minimum flit latency = 7
Average flit latency = 35.0637
Maximum flit latency = 81
Slowest flit = 8450
Minimum fragmentation = 0
Average fragmentation = 0.639018
Maximum fragmentation = 8
Minimum injected packet rate = 0.017 (at node 23)
Average injected packet rate = 0.0245313
Maximum injected packet rate = 0.041 (at node 34)
Minimum accepted packet rate = 0.013 (at node 31)
Average accepted packet rate = 0.0235469
Maximum accepted packet rate = 0.034 (at node 46)
Minimum injected flit rate = 0.034 (at node 23)
Average injected flit rate = 0.0490312
Maximum injected flit rate = 0.082 (at node 34)
Minimum accepted flit rate = 0.026 (at node 31)
Average accepted flit rate = 0.047125
Maximum accepted flit rate = 0.068 (at node 46)
Average injected packet length = 1.99873
Average accepted packet length = 2.00133
Total in-flight flits = 124 (0 measured)
latency change    = 1
throughput change = 1
latency change    = 1
throughput change = 1
0
Class 0:
Minimum packet latency = 8
Average packet latency = 36.3865
Maximum packet latency = 96
Minimum network latency = 8
Average network latency = 36.2309
Maximum network latency = 96
Slowest packet = 6161
Minimum flit latency = 7
Average flit latency = 34.855
Maximum flit latency = 95
Slowest flit = 12322
Minimum fragmentation = 0
Average fragmentation = 0.677765
Maximum fragmentation = 11
Minimum injected packet rate = 0.07 (at node 40)
Average injected packet rate = 0.084625
Maximum injected packet rate = 0.1025 (at node 9)
Minimum accepted packet rate = 0.0685 (at node 4)
Average accepted packet rate = 0.0830625
Maximum accepted packet rate = 0.0945 (at node 12)
Minimum injected flit rate = 0.14 (at node 40)
Average injected flit rate = 0.169187
Maximum injected flit rate = 0.205 (at node 9)
Minimum accepted flit rate = 0.137 (at node 4)
Average accepted flit rate = 0.166211
Maximum accepted flit rate = 0.1895 (at node 12)
Average injected packet length = 1.99926
Average accepted packet length = 2.00103
Total in-flight flits = 389 (0 measured)
Class 1:
Minimum packet latency = 8
Average packet latency = 36.4422
Maximum packet latency = 85
Minimum network latency = 8
Average network latency = 36.3691
Maximum network latency = 85
Slowest packet = 10151
Minimum flit latency = 7
Average flit latency = 34.9254
Maximum flit latency = 84
Slowest flit = 20303
Minimum fragmentation = 0
Average fragmentation = 0.658898
Maximum fragmentation = 8
Minimum injected packet rate = 0.0165 (at node 56)
Average injected packet rate = 0.0252656
Maximum injected packet rate = 0.038 (at node 34)
Minimum accepted packet rate = 0.0185 (at node 48)
Average accepted packet rate = 0.0248047
Maximum accepted packet rate = 0.032 (at node 26)
Minimum injected flit rate = 0.033 (at node 56)
Average injected flit rate = 0.0505078
Maximum injected flit rate = 0.076 (at node 34)
Minimum accepted flit rate = 0.037 (at node 48)
Average accepted flit rate = 0.049625
Maximum accepted flit rate = 0.064 (at node 26)
Average injected packet length = 1.99907
Average accepted packet length = 2.00063
Total in-flight flits = 116 (0 measured)
latency change    = 0.000279321
throughput change = 0.013302
latency change    = 0.00367085
throughput change = 0.0503778
0
Class 0:
Minimum packet latency = 8
Average packet latency = 36.4845
Maximum packet latency = 84
Minimum network latency = 8
Average network latency = 36.3319
Maximum network latency = 83
Slowest packet = 14701
Minimum flit latency = 7
Average flit latency = 34.9501
Maximum flit latency = 82
Slowest flit = 32444
Minimum fragmentation = 0
Average fragmentation = 0.707254
Maximum fragmentation = 10
Minimum injected packet rate = 0.073 (at node 2)
Average injected packet rate = 0.0848125
Maximum injected packet rate = 0.112 (at node 27)
Minimum accepted packet rate = 0.064 (at node 38)
Average accepted packet rate = 0.0850781
Maximum accepted packet rate = 0.107 (at node 60)
Minimum injected flit rate = 0.146 (at node 2)
Average injected flit rate = 0.169641
Maximum injected flit rate = 0.224 (at node 27)
Minimum accepted flit rate = 0.128 (at node 38)
Average accepted flit rate = 0.170094
Maximum accepted flit rate = 0.214 (at node 60)
Average injected packet length = 2.00018
Average accepted packet length = 1.99927
Total in-flight flits = 361 (0 measured)
Class 1:
Minimum packet latency = 8
Average packet latency = 36.2425
Maximum packet latency = 88
Minimum network latency = 8
Average network latency = 36.1711
Maximum network latency = 88
Slowest packet = 14621
Minimum flit latency = 7
Average flit latency = 34.6662
Maximum flit latency = 87
Slowest flit = 29242
Minimum fragmentation = 0
Average fragmentation = 0.738095
Maximum fragmentation = 9
Minimum injected packet rate = 0.014 (at node 40)
Average injected packet rate = 0.0248281
Maximum injected packet rate = 0.035 (at node 2)
Minimum accepted packet rate = 0.017 (at node 9)
Average accepted packet rate = 0.0249375
Maximum accepted packet rate = 0.032 (at node 0)
Minimum injected flit rate = 0.028 (at node 40)
Average injected flit rate = 0.0497031
Maximum injected flit rate = 0.07 (at node 2)
Minimum accepted flit rate = 0.034 (at node 9)
Average accepted flit rate = 0.0499062
Maximum accepted flit rate = 0.064 (at node 0)
Average injected packet length = 2.00189
Average accepted packet length = 2.00125
Total in-flight flits = 100 (0 measured)
latency change    = 0.00268625
throughput change = 0.0228275
latency change    = 0.00551076
throughput change = 0.00563557
Warmed up ...Time used is 3000 cycles
1
Class 0:
Minimum packet latency = 8
Average packet latency = 36.6547
Maximum packet latency = 102
Minimum network latency = 8
Average network latency = 36.5141
Maximum network latency = 102
Slowest packet = 25271
Minimum flit latency = 7
Average flit latency = 35.3157
Maximum flit latency = 101
Slowest flit = 50543
Minimum fragmentation = 0
Average fragmentation = 0.666993
Maximum fragmentation = 17
Minimum injected packet rate = 0.057 (at node 20)
Average injected packet rate = 0.0832656
Maximum injected packet rate = 0.101 (at node 35)
Minimum accepted packet rate = 0.07 (at node 44)
Average accepted packet rate = 0.0827813
Maximum accepted packet rate = 0.099 (at node 26)
Minimum injected flit rate = 0.114 (at node 20)
Average injected flit rate = 0.166531
Maximum injected flit rate = 0.202 (at node 35)
Minimum accepted flit rate = 0.14 (at node 44)
Average accepted flit rate = 0.165594
Maximum accepted flit rate = 0.198 (at node 26)
Average injected packet length = 2
Average accepted packet length = 2.00038
Total in-flight flits = 419 (419 measured)
Class 1:
Minimum packet latency = 8
Average packet latency = 36.6518
Maximum packet latency = 93
Minimum network latency = 8
Average network latency = 36.568
Maximum network latency = 92
Slowest packet = 22720
Minimum flit latency = 7
Average flit latency = 35.2181
Maximum flit latency = 90
Slowest flit = 45441
Minimum fragmentation = 0
Average fragmentation = 0.738665
Maximum fragmentation = 8
Minimum injected packet rate = 0.016 (at node 2)
Average injected packet rate = 0.0259844
Maximum injected packet rate = 0.037 (at node 42)
Minimum accepted packet rate = 0.015 (at node 20)
Average accepted packet rate = 0.025625
Maximum accepted packet rate = 0.039 (at node 56)
Minimum injected flit rate = 0.032 (at node 2)
Average injected flit rate = 0.0519375
Maximum injected flit rate = 0.074 (at node 42)
Minimum accepted flit rate = 0.03 (at node 20)
Average accepted flit rate = 0.0512344
Maximum accepted flit rate = 0.078 (at node 56)
Average injected packet length = 1.9988
Average accepted packet length = 1.99939
Total in-flight flits = 149 (149 measured)
latency change    = 0.00464313
throughput change = 0.0271749
latency change    = 0.0111668
throughput change = 0.0259225
1
Class 0:
Minimum packet latency = 8
Average packet latency = 36.7301
Maximum packet latency = 102
Minimum network latency = 8
Average network latency = 36.5819
Maximum network latency = 102
Slowest packet = 25271
Minimum flit latency = 6
Average flit latency = 35.2824
Maximum flit latency = 101
Slowest flit = 50543
Minimum fragmentation = 0
Average fragmentation = 0.695225
Maximum fragmentation = 17
Minimum injected packet rate = 0.072 (at node 4)
Average injected packet rate = 0.084125
Maximum injected packet rate = 0.1005 (at node 35)
Minimum accepted packet rate = 0.067 (at node 44)
Average accepted packet rate = 0.0840547
Maximum accepted packet rate = 0.0955 (at node 51)
Minimum injected flit rate = 0.1445 (at node 4)
Average injected flit rate = 0.168258
Maximum injected flit rate = 0.201 (at node 35)
Minimum accepted flit rate = 0.134 (at node 44)
Average accepted flit rate = 0.168141
Maximum accepted flit rate = 0.191 (at node 51)
Average injected packet length = 2.00009
Average accepted packet length = 2.00037
Total in-flight flits = 373 (373 measured)
Class 1:
Minimum packet latency = 8
Average packet latency = 36.4911
Maximum packet latency = 93
Minimum network latency = 8
Average network latency = 36.4132
Maximum network latency = 92
Slowest packet = 22720
Minimum flit latency = 7
Average flit latency = 35.003
Maximum flit latency = 90
Slowest flit = 45441
Minimum fragmentation = 0
Average fragmentation = 0.716993
Maximum fragmentation = 9
Minimum injected packet rate = 0.017 (at node 61)
Average injected packet rate = 0.0258672
Maximum injected packet rate = 0.0325 (at node 18)
Minimum accepted packet rate = 0.0175 (at node 17)
Average accepted packet rate = 0.0259687
Maximum accepted packet rate = 0.035 (at node 56)
Minimum injected flit rate = 0.034 (at node 61)
Average injected flit rate = 0.0517266
Maximum injected flit rate = 0.065 (at node 18)
Minimum accepted flit rate = 0.035 (at node 17)
Average accepted flit rate = 0.0519063
Maximum accepted flit rate = 0.07 (at node 56)
Average injected packet length = 1.9997
Average accepted packet length = 1.9988
Total in-flight flits = 78 (78 measured)
latency change    = 0.00205403
throughput change = 0.0151473
latency change    = 0.00440179
throughput change = 0.012944
1
Class 0:
Minimum packet latency = 8
Average packet latency = 36.7445
Maximum packet latency = 102
Minimum network latency = 8
Average network latency = 36.5963
Maximum network latency = 102
Slowest packet = 25271
Minimum flit latency = 6
Average flit latency = 35.2725
Maximum flit latency = 101
Slowest flit = 50543
Minimum fragmentation = 0
Average fragmentation = 0.687559
Maximum fragmentation = 17
Minimum injected packet rate = 0.074 (at node 4)
Average injected packet rate = 0.0844792
Maximum injected packet rate = 0.0966667 (at node 60)
Minimum accepted packet rate = 0.071 (at node 44)
Average accepted packet rate = 0.0843906
Maximum accepted packet rate = 0.094 (at node 7)
Minimum injected flit rate = 0.148333 (at node 4)
Average injected flit rate = 0.168969
Maximum injected flit rate = 0.193333 (at node 60)
Minimum accepted flit rate = 0.142 (at node 44)
Average accepted flit rate = 0.168786
Maximum accepted flit rate = 0.187667 (at node 7)
Average injected packet length = 2.00012
Average accepted packet length = 2.00006
Total in-flight flits = 392 (392 measured)
Class 1:
Minimum packet latency = 8
Average packet latency = 36.4881
Maximum packet latency = 93
Minimum network latency = 8
Average network latency = 36.4112
Maximum network latency = 92
Slowest packet = 22720
Minimum flit latency = 7
Average flit latency = 34.9768
Maximum flit latency = 90
Slowest flit = 45441
Minimum fragmentation = 0
Average fragmentation = 0.720358
Maximum fragmentation = 9
Minimum injected packet rate = 0.0203333 (at node 23)
Average injected packet rate = 0.0259427
Maximum injected packet rate = 0.0333333 (at node 18)
Minimum accepted packet rate = 0.016 (at node 17)
Average accepted packet rate = 0.0258802
Maximum accepted packet rate = 0.0343333 (at node 9)
Minimum injected flit rate = 0.0406667 (at node 23)
Average injected flit rate = 0.0518802
Maximum injected flit rate = 0.0666667 (at node 18)
Minimum accepted flit rate = 0.032 (at node 17)
Average accepted flit rate = 0.0517448
Maximum accepted flit rate = 0.0686667 (at node 9)
Average injected packet length = 1.9998
Average accepted packet length = 1.9994
Total in-flight flits = 127 (127 measured)
latency change    = 0.000391153
throughput change = 0.00382633
latency change    = 8.31618e-05
throughput change = 0.00312028
Draining all recorded packets ...
Draining remaining packets ...
Time taken is 6136 cycles
====== Traffic class 0 ======
Overall minimum packet latency = 8 (1 samples)
Overall average packet latency = 36.81 (1 samples)
Overall maximum packet latency = 102 (1 samples)
Overall minimum network latency = 8 (1 samples)
Overall average network latency = 36.6605 (1 samples)
Overall maximum network latency = 102 (1 samples)
Overall minimum flit latency = 6 (1 samples)
Overall average flit latency = 35.3196 (1 samples)
Overall maximum flit latency = 101 (1 samples)
Overall minimum fragmentation = 0 (1 samples)
Overall average fragmentation = 0.688964 (1 samples)
Overall maximum fragmentation = 17 (1 samples)
Overall minimum injected packet rate = 0.074 (1 samples)
Overall average injected packet rate = 0.0844792 (1 samples)
Overall maximum injected packet rate = 0.0966667 (1 samples)
Overall minimum accepted packet rate = 0.071 (1 samples)
Overall average accepted packet rate = 0.0843906 (1 samples)
Overall maximum accepted packet rate = 0.094 (1 samples)
Overall minimum injected flit rate = 0.148333 (1 samples)
Overall average injected flit rate = 0.168969 (1 samples)
Overall maximum injected flit rate = 0.193333 (1 samples)
Overall minimum accepted flit rate = 0.142 (1 samples)
Overall average accepted flit rate = 0.168786 (1 samples)
Overall maximum accepted flit rate = 0.187667 (1 samples)
Overall average injected packet size = 2.00012 (1 samples)
Overall average accepted packet size = 2.00006 (1 samples)
Overall average hops = 6.27978 (1 samples)
====== Traffic class 1 ======
Overall minimum packet latency = 8 (1 samples)
Overall average packet latency = 36.5635 (1 samples)
Overall maximum packet latency = 93 (1 samples)
Overall minimum network latency = 8 (1 samples)
Overall average network latency = 36.4864 (1 samples)
Overall maximum network latency = 92 (1 samples)
Overall minimum flit latency = 7 (1 samples)
Overall average flit latency = 34.972 (1 samples)
Overall maximum flit latency = 90 (1 samples)
Overall minimum fragmentation = 0 (1 samples)
Overall average fragmentation = 0.722345 (1 samples)
Overall maximum fragmentation = 9 (1 samples)
Overall minimum injected packet rate = 0.0203333 (1 samples)
Overall average injected packet rate = 0.0259427 (1 samples)
Overall maximum injected packet rate = 0.0333333 (1 samples)
Overall minimum accepted packet rate = 0.016 (1 samples)
Overall average accepted packet rate = 0.0258802 (1 samples)
Overall maximum accepted packet rate = 0.0343333 (1 samples)
Overall minimum injected flit rate = 0.0406667 (1 samples)
Overall average injected flit rate = 0.0518802 (1 samples)
Overall maximum injected flit rate = 0.0666667 (1 samples)
Overall minimum accepted flit rate = 0.032 (1 samples)
Overall average accepted flit rate = 0.0517448 (1 samples)
Overall maximum accepted flit rate = 0.0686667 (1 samples)
Overall average injected packet size = 1.9998 (1 samples)
Overall average accepted packet size = 1.9994 (1 samples)
Overall average hops = 6.22485 (1 samples)
Total run time 5.75486
