BEGIN Configuration File: ./examples/project_inputs/config-iq_tp-bitcomp_c1ir-0.05_c0ir-0.19_prio-islip
//
// EVC Router Config File -         
//
// Jason Deng, Mike Wang        
//        

//
// Flow control
//

num_vcs     = 5;
vc_buf_size = 6;

wait_for_tail_credit = 0;

vc_allocator = islip;
sw_allocator = islip;
alloc_iters  = 2;

credit_delay   = 2;
routing_delay  = 1;
vc_alloc_delay = 1;
sw_alloc_delay = 1;
st_final_delay = 1;

input_speedup     = 1;
output_speedup    = 1;
internal_speedup  = 1.0;

//
// Traffic
//

sim_type = latency;

warmup_periods = 3;
sample_period  = 1000;
sim_count = 1;

//
//topoogy
//

topology = mesh;
k  = 8;
n  = 2;

//
// Routing
//

router = iq;
routing_function = dor;

packet_size = 2;
use_read_write = 0;

traffic  = bitcomp;
injection_rate = {0.19,0.05};
injection_rate_uses_flits = 1;

classes = 2;
class_priority = {0,0};
priority = class;

noq = 0;
hold_switch_for_packet = 0;
vc_prioritize_empty = 0;

//
// express virtual channel settings
//

evc = 1;
num_evcs = 1;
evc_prioritized_class = 1;
selective_vc_request = 1;
hold_switch_for_evc_packet = 1;
evc_next_route = 1;

END Configuration File: ./examples/project_inputs/config-iq_tp-bitcomp_c1ir-0.05_c0ir-0.19_prio-islip
0
Class 0:
Minimum packet latency = 18
Average packet latency = 74.525
Maximum packet latency = 223
Minimum network latency = 18
Average network latency = 74.3472
Maximum network latency = 223
Slowest packet = 4503
Minimum flit latency = 16
Average flit latency = 72.7451
Maximum flit latency = 222
Slowest flit = 9006
Minimum fragmentation = 0
Average fragmentation = 1.17132
Maximum fragmentation = 16
Minimum injected packet rate = 0.074 (at node 49)
Average injected packet rate = 0.0931094
Maximum injected packet rate = 0.114 (at node 58)
Minimum accepted packet rate = 0.067 (at node 14)
Average accepted packet rate = 0.085
Maximum accepted packet rate = 0.104 (at node 12)
Minimum injected flit rate = 0.147 (at node 49)
Average injected flit rate = 0.186141
Maximum injected flit rate = 0.228 (at node 58)
Minimum accepted flit rate = 0.134 (at node 14)
Average accepted flit rate = 0.170172
Maximum accepted flit rate = 0.209 (at node 12)
Average injected packet length = 1.99916
Average accepted packet length = 2.00202
Total in-flight flits = 1027 (0 measured)
Class 1:
Minimum packet latency = 18
Average packet latency = 75.224
Maximum packet latency = 201
Minimum network latency = 18
Average network latency = 75.15
Maximum network latency = 201
Slowest packet = 3977
Minimum flit latency = 16
Average flit latency = 73.4281
Maximum flit latency = 200
Slowest flit = 8420
Minimum fragmentation = 0
Average fragmentation = 1.188
Maximum fragmentation = 10
Minimum injected packet rate = 0.013 (at node 4)
Average injected packet rate = 0.0257031
Maximum injected packet rate = 0.035 (at node 61)
Minimum accepted packet rate = 0.013 (at node 1)
Average accepted packet rate = 0.0234375
Maximum accepted packet rate = 0.034 (at node 2)
Minimum injected flit rate = 0.026 (at node 4)
Average injected flit rate = 0.0513906
Maximum injected flit rate = 0.07 (at node 61)
Minimum accepted flit rate = 0.026 (at node 1)
Average accepted flit rate = 0.0469375
Maximum accepted flit rate = 0.068 (at node 2)
Average injected packet length = 1.99939
Average accepted packet length = 2.00267
Total in-flight flits = 286 (0 measured)
latency change    = 1
throughput change = 1
latency change    = 1
throughput change = 1
0
Class 0:
Minimum packet latency = 18
Average packet latency = 81.3625
Maximum packet latency = 262
Minimum network latency = 18
Average network latency = 81.1894
Maximum network latency = 262
Slowest packet = 12249
Minimum flit latency = 16
Average flit latency = 79.5416
Maximum flit latency = 261
Slowest flit = 24499
Minimum fragmentation = 0
Average fragmentation = 1.23513
Maximum fragmentation = 16
Minimum injected packet rate = 0.0805 (at node 38)
Average injected packet rate = 0.0925547
Maximum injected packet rate = 0.108 (at node 4)
Minimum accepted packet rate = 0.0715 (at node 16)
Average accepted packet rate = 0.08825
Maximum accepted packet rate = 0.1015 (at node 59)
Minimum injected flit rate = 0.161 (at node 38)
Average injected flit rate = 0.185031
Maximum injected flit rate = 0.216 (at node 4)
Minimum accepted flit rate = 0.143 (at node 16)
Average accepted flit rate = 0.176586
Maximum accepted flit rate = 0.2035 (at node 59)
Average injected packet length = 1.99916
Average accepted packet length = 2.00097
Total in-flight flits = 1091 (0 measured)
Class 1:
Minimum packet latency = 18
Average packet latency = 82.1222
Maximum packet latency = 280
Minimum network latency = 18
Average network latency = 82.0453
Maximum network latency = 280
Slowest packet = 12346
Minimum flit latency = 16
Average flit latency = 80.3202
Maximum flit latency = 279
Slowest flit = 24692
Minimum fragmentation = 0
Average fragmentation = 1.20013
Maximum fragmentation = 19
Minimum injected packet rate = 0.017 (at node 51)
Average injected packet rate = 0.0256562
Maximum injected packet rate = 0.035 (at node 63)
Minimum accepted packet rate = 0.016 (at node 50)
Average accepted packet rate = 0.0244766
Maximum accepted packet rate = 0.033 (at node 29)
Minimum injected flit rate = 0.034 (at node 51)
Average injected flit rate = 0.0512969
Maximum injected flit rate = 0.07 (at node 63)
Minimum accepted flit rate = 0.032 (at node 50)
Average accepted flit rate = 0.0489687
Maximum accepted flit rate = 0.066 (at node 29)
Average injected packet length = 1.99939
Average accepted packet length = 2.00064
Total in-flight flits = 300 (0 measured)
latency change    = 0.0840377
throughput change = 0.0363226
latency change    = 0.0839997
throughput change = 0.0414805
0
Class 0:
Minimum packet latency = 19
Average packet latency = 94.0964
Maximum packet latency = 321
Minimum network latency = 19
Average network latency = 93.9219
Maximum network latency = 321
Slowest packet = 18058
Minimum flit latency = 17
Average flit latency = 92.2033
Maximum flit latency = 320
Slowest flit = 36117
Minimum fragmentation = 0
Average fragmentation = 1.32815
Maximum fragmentation = 17
Minimum injected packet rate = 0.074 (at node 3)
Average injected packet rate = 0.0945
Maximum injected packet rate = 0.114 (at node 11)
Minimum accepted packet rate = 0.077 (at node 37)
Average accepted packet rate = 0.094375
Maximum accepted packet rate = 0.113 (at node 52)
Minimum injected flit rate = 0.148 (at node 3)
Average injected flit rate = 0.189016
Maximum injected flit rate = 0.227 (at node 11)
Minimum accepted flit rate = 0.154 (at node 37)
Average accepted flit rate = 0.188797
Maximum accepted flit rate = 0.226 (at node 52)
Average injected packet length = 2.00017
Average accepted packet length = 2.0005
Total in-flight flits = 1104 (0 measured)
Class 1:
Minimum packet latency = 19
Average packet latency = 92.633
Maximum packet latency = 268
Minimum network latency = 19
Average network latency = 92.5793
Maximum network latency = 268
Slowest packet = 20387
Minimum flit latency = 17
Average flit latency = 90.8373
Maximum flit latency = 267
Slowest flit = 40774
Minimum fragmentation = 0
Average fragmentation = 1.2287
Maximum fragmentation = 11
Minimum injected packet rate = 0.011 (at node 63)
Average injected packet rate = 0.0235156
Maximum injected packet rate = 0.035 (at node 24)
Minimum accepted packet rate = 0.016 (at node 0)
Average accepted packet rate = 0.0238438
Maximum accepted packet rate = 0.034 (at node 39)
Minimum injected flit rate = 0.022 (at node 63)
Average injected flit rate = 0.0470625
Maximum injected flit rate = 0.07 (at node 24)
Minimum accepted flit rate = 0.032 (at node 0)
Average accepted flit rate = 0.0477344
Maximum accepted flit rate = 0.067 (at node 39)
Average injected packet length = 2.00133
Average accepted packet length = 2.00197
Total in-flight flits = 255 (0 measured)
latency change    = 0.135328
throughput change = 0.0646776
latency change    = 0.113467
throughput change = 0.0258592
Warmed up ...Time used is 3000 cycles
1
Class 0:
Minimum packet latency = 18
Average packet latency = 89.883
Maximum packet latency = 251
Minimum network latency = 18
Average network latency = 89.7125
Maximum network latency = 250
Slowest packet = 23286
Minimum flit latency = 17
Average flit latency = 90.3619
Maximum flit latency = 305
Slowest flit = 42349
Minimum fragmentation = 0
Average fragmentation = 1.31489
Maximum fragmentation = 17
Minimum injected packet rate = 0.071 (at node 45)
Average injected packet rate = 0.0952812
Maximum injected packet rate = 0.116 (at node 54)
Minimum accepted packet rate = 0.074 (at node 18)
Average accepted packet rate = 0.094875
Maximum accepted packet rate = 0.117 (at node 16)
Minimum injected flit rate = 0.142 (at node 45)
Average injected flit rate = 0.190641
Maximum injected flit rate = 0.232 (at node 54)
Minimum accepted flit rate = 0.147 (at node 18)
Average accepted flit rate = 0.189734
Maximum accepted flit rate = 0.235 (at node 16)
Average injected packet length = 2.00082
Average accepted packet length = 1.99984
Total in-flight flits = 1157 (1157 measured)
Class 1:
Minimum packet latency = 18
Average packet latency = 89.8254
Maximum packet latency = 274
Minimum network latency = 18
Average network latency = 89.7601
Maximum network latency = 274
Slowest packet = 26091
Minimum flit latency = 17
Average flit latency = 89.8858
Maximum flit latency = 273
Slowest flit = 52182
Minimum fragmentation = 0
Average fragmentation = 1.33058
Maximum fragmentation = 9
Minimum injected packet rate = 0.014 (at node 49)
Average injected packet rate = 0.0251719
Maximum injected packet rate = 0.037 (at node 10)
Minimum accepted packet rate = 0.013 (at node 49)
Average accepted packet rate = 0.0247656
Maximum accepted packet rate = 0.038 (at node 53)
Minimum injected flit rate = 0.028 (at node 49)
Average injected flit rate = 0.0502969
Maximum injected flit rate = 0.074 (at node 10)
Minimum accepted flit rate = 0.026 (at node 49)
Average accepted flit rate = 0.0495312
Maximum accepted flit rate = 0.076 (at node 53)
Average injected packet length = 1.99814
Average accepted packet length = 2
Total in-flight flits = 307 (307 measured)
latency change    = 0.046876
throughput change = 0.00494112
latency change    = 0.0312562
throughput change = 0.0362776
1
Class 0:
Minimum packet latency = 18
Average packet latency = 92.3177
Maximum packet latency = 298
Minimum network latency = 18
Average network latency = 92.1468
Maximum network latency = 296
Slowest packet = 30590
Minimum flit latency = 17
Average flit latency = 91.5
Maximum flit latency = 305
Slowest flit = 42349
Minimum fragmentation = 0
Average fragmentation = 1.31378
Maximum fragmentation = 17
Minimum injected packet rate = 0.074 (at node 45)
Average injected packet rate = 0.0950469
Maximum injected packet rate = 0.1085 (at node 14)
Minimum accepted packet rate = 0.0765 (at node 18)
Average accepted packet rate = 0.0946719
Maximum accepted packet rate = 0.108 (at node 49)
Minimum injected flit rate = 0.148 (at node 45)
Average injected flit rate = 0.190148
Maximum injected flit rate = 0.2175 (at node 43)
Minimum accepted flit rate = 0.153 (at node 18)
Average accepted flit rate = 0.189336
Maximum accepted flit rate = 0.216 (at node 49)
Average injected packet length = 2.00058
Average accepted packet length = 1.99992
Total in-flight flits = 1201 (1201 measured)
Class 1:
Minimum packet latency = 18
Average packet latency = 92.3109
Maximum packet latency = 274
Minimum network latency = 18
Average network latency = 92.2334
Maximum network latency = 274
Slowest packet = 26091
Minimum flit latency = 17
Average flit latency = 91.3197
Maximum flit latency = 273
Slowest flit = 52182
Minimum fragmentation = 0
Average fragmentation = 1.35608
Maximum fragmentation = 11
Minimum injected packet rate = 0.017 (at node 45)
Average injected packet rate = 0.0248047
Maximum injected packet rate = 0.0315 (at node 60)
Minimum accepted packet rate = 0.0165 (at node 7)
Average accepted packet rate = 0.0247109
Maximum accepted packet rate = 0.0325 (at node 17)
Minimum injected flit rate = 0.034 (at node 45)
Average injected flit rate = 0.0495859
Maximum injected flit rate = 0.063 (at node 60)
Minimum accepted flit rate = 0.033 (at node 7)
Average accepted flit rate = 0.0494141
Maximum accepted flit rate = 0.065 (at node 17)
Average injected packet length = 1.99906
Average accepted packet length = 1.99968
Total in-flight flits = 280 (280 measured)
latency change    = 0.0263727
throughput change = 0.00210439
latency change    = 0.0269251
throughput change = 0.00237154
1
Class 0:
Minimum packet latency = 18
Average packet latency = 96.4413
Maximum packet latency = 569
Minimum network latency = 18
Average network latency = 96.1602
Maximum network latency = 569
Slowest packet = 41150
Minimum flit latency = 17
Average flit latency = 95.0669
Maximum flit latency = 568
Slowest flit = 82301
Minimum fragmentation = 0
Average fragmentation = 1.30846
Maximum fragmentation = 18
Minimum injected packet rate = 0.0813333 (at node 50)
Average injected packet rate = 0.0948698
Maximum injected packet rate = 0.108333 (at node 43)
Minimum accepted packet rate = 0.079 (at node 18)
Average accepted packet rate = 0.0939219
Maximum accepted packet rate = 0.107667 (at node 20)
Minimum injected flit rate = 0.162667 (at node 50)
Average injected flit rate = 0.18975
Maximum injected flit rate = 0.217 (at node 43)
Minimum accepted flit rate = 0.157667 (at node 18)
Average accepted flit rate = 0.187885
Maximum accepted flit rate = 0.215333 (at node 20)
Average injected packet length = 2.00011
Average accepted packet length = 2.00044
Total in-flight flits = 1462 (1462 measured)
Class 1:
Minimum packet latency = 18
Average packet latency = 96.8516
Maximum packet latency = 483
Minimum network latency = 18
Average network latency = 96.6792
Maximum network latency = 483
Slowest packet = 40509
Minimum flit latency = 17
Average flit latency = 95.3521
Maximum flit latency = 482
Slowest flit = 81018
Minimum fragmentation = 0
Average fragmentation = 1.3425
Maximum fragmentation = 15
Minimum injected packet rate = 0.0186667 (at node 56)
Average injected packet rate = 0.0252135
Maximum injected packet rate = 0.0313333 (at node 34)
Minimum accepted packet rate = 0.0173333 (at node 7)
Average accepted packet rate = 0.0247188
Maximum accepted packet rate = 0.0306667 (at node 39)
Minimum injected flit rate = 0.0373333 (at node 56)
Average injected flit rate = 0.0504219
Maximum injected flit rate = 0.0623333 (at node 34)
Minimum accepted flit rate = 0.035 (at node 7)
Average accepted flit rate = 0.0494479
Maximum accepted flit rate = 0.0613333 (at node 39)
Average injected packet length = 1.99979
Average accepted packet length = 2.00042
Total in-flight flits = 443 (443 measured)
latency change    = 0.0427583
throughput change = 0.00772024
latency change    = 0.046883
throughput change = 0.000684643
Draining all recorded packets ...
Draining remaining packets ...
Time taken is 7012 cycles
====== Traffic class 0 ======
Overall minimum packet latency = 18 (1 samples)
Overall average packet latency = 101.047 (1 samples)
Overall maximum packet latency = 808 (1 samples)
Overall minimum network latency = 18 (1 samples)
Overall average network latency = 99.5519 (1 samples)
Overall maximum network latency = 569 (1 samples)
Overall minimum flit latency = 17 (1 samples)
Overall average flit latency = 102.064 (1 samples)
Overall maximum flit latency = 573 (1 samples)
Overall minimum fragmentation = 0 (1 samples)
Overall average fragmentation = 1.31492 (1 samples)
Overall maximum fragmentation = 18 (1 samples)
Overall minimum injected packet rate = 0.0813333 (1 samples)
Overall average injected packet rate = 0.0948698 (1 samples)
Overall maximum injected packet rate = 0.108333 (1 samples)
Overall minimum accepted packet rate = 0.079 (1 samples)
Overall average accepted packet rate = 0.0939219 (1 samples)
Overall maximum accepted packet rate = 0.107667 (1 samples)
Overall minimum injected flit rate = 0.162667 (1 samples)
Overall average injected flit rate = 0.18975 (1 samples)
Overall maximum injected flit rate = 0.217 (1 samples)
Overall minimum accepted flit rate = 0.157667 (1 samples)
Overall average accepted flit rate = 0.187885 (1 samples)
Overall maximum accepted flit rate = 0.215333 (1 samples)
Overall average injected packet size = 2.00011 (1 samples)
Overall average accepted packet size = 2.00044 (1 samples)
Overall average hops = 9.02015 (1 samples)
====== Traffic class 1 ======
Overall minimum packet latency = 18 (1 samples)
Overall average packet latency = 100.106 (1 samples)
Overall maximum packet latency = 505 (1 samples)
Overall minimum network latency = 18 (1 samples)
Overall average network latency = 99.8467 (1 samples)
Overall maximum network latency = 503 (1 samples)
Overall minimum flit latency = 17 (1 samples)
Overall average flit latency = 102.253 (1 samples)
Overall maximum flit latency = 544 (1 samples)
Overall minimum fragmentation = 0 (1 samples)
Overall average fragmentation = 1.35819 (1 samples)
Overall maximum fragmentation = 15 (1 samples)
Overall minimum injected packet rate = 0.0186667 (1 samples)
Overall average injected packet rate = 0.0252135 (1 samples)
Overall maximum injected packet rate = 0.0313333 (1 samples)
Overall minimum accepted packet rate = 0.0173333 (1 samples)
Overall average accepted packet rate = 0.0247188 (1 samples)
Overall maximum accepted packet rate = 0.0306667 (1 samples)
Overall minimum injected flit rate = 0.0373333 (1 samples)
Overall average injected flit rate = 0.0504219 (1 samples)
Overall maximum injected flit rate = 0.0623333 (1 samples)
Overall minimum accepted flit rate = 0.035 (1 samples)
Overall average accepted flit rate = 0.0494479 (1 samples)
Overall maximum accepted flit rate = 0.0613333 (1 samples)
Overall average injected packet size = 1.99979 (1 samples)
Overall average accepted packet size = 2.00042 (1 samples)
Overall average hops = 8.92977 (1 samples)
Total run time 9.71263
