BEGIN Configuration File: ./examples/project_inputs/config-iq_tp-uniform_c1ir-0.05_c0ir-0.29_prio-islip
//
// EVC Router Config File -         
//
// Jason Deng, Mike Wang        
//        

//
// Flow control
//

num_vcs     = 5;
vc_buf_size = 6;

wait_for_tail_credit = 0;

vc_allocator = islip;
sw_allocator = islip;
alloc_iters  = 2;

credit_delay   = 2;
routing_delay  = 1;
vc_alloc_delay = 1;
sw_alloc_delay = 1;
st_final_delay = 1;

input_speedup     = 1;
output_speedup    = 1;
internal_speedup  = 1.0;

//
// Traffic
//

sim_type = latency;

warmup_periods = 3;
sample_period  = 1000;
sim_count = 1;

//
//topoogy
//

topology = mesh;
k  = 8;
n  = 2;

//
// Routing
//

router = iq;
routing_function = dor;

packet_size = 2;
use_read_write = 0;

traffic  = uniform;
injection_rate = {0.29,0.05};
injection_rate_uses_flits = 1;

classes = 2;
class_priority = {0,0};
priority = class;

noq = 0;
hold_switch_for_packet = 0;
vc_prioritize_empty = 0;

//
// express virtual channel settings
//

evc = 1;
num_evcs = 1;
evc_prioritized_class = 1;
selective_vc_request = 1;
hold_switch_for_evc_packet = 1;
evc_next_route = 1;

END Configuration File: ./examples/project_inputs/config-iq_tp-uniform_c1ir-0.05_c0ir-0.29_prio-islip
0
Class 0:
Minimum packet latency = 8
Average packet latency = 41.5998
Maximum packet latency = 143
Minimum network latency = 8
Average network latency = 41.2973
Maximum network latency = 143
Slowest packet = 3144
Minimum flit latency = 7
Average flit latency = 39.5941
Maximum flit latency = 142
Slowest flit = 6288
Minimum fragmentation = 0
Average fragmentation = 1.34345
Maximum fragmentation = 23
Minimum injected packet rate = 0.119 (at node 51)
Average injected packet rate = 0.144625
Maximum injected packet rate = 0.175 (at node 3)
Minimum accepted packet rate = 0.118 (at node 10)
Average accepted packet rate = 0.138531
Maximum accepted packet rate = 0.165 (at node 14)
Minimum injected flit rate = 0.238 (at node 51)
Average injected flit rate = 0.289062
Maximum injected flit rate = 0.35 (at node 3)
Minimum accepted flit rate = 0.236 (at node 10)
Average accepted flit rate = 0.277406
Maximum accepted flit rate = 0.33 (at node 14)
Average injected packet length = 1.9987
Average accepted packet length = 2.00248
Total in-flight flits = 760 (0 measured)
Class 1:
Minimum packet latency = 8
Average packet latency = 42.151
Maximum packet latency = 130
Minimum network latency = 8
Average network latency = 42.0463
Maximum network latency = 130
Slowest packet = 3254
Minimum flit latency = 7
Average flit latency = 40.1592
Maximum flit latency = 129
Slowest flit = 6508
Minimum fragmentation = 0
Average fragmentation = 1.3856
Maximum fragmentation = 15
Minimum injected packet rate = 0.014 (at node 43)
Average injected packet rate = 0.025375
Maximum injected packet rate = 0.039 (at node 25)
Minimum accepted packet rate = 0.007 (at node 7)
Average accepted packet rate = 0.0243125
Maximum accepted packet rate = 0.04 (at node 11)
Minimum injected flit rate = 0.028 (at node 43)
Average injected flit rate = 0.0507344
Maximum injected flit rate = 0.078 (at node 25)
Minimum accepted flit rate = 0.014 (at node 7)
Average accepted flit rate = 0.0486875
Maximum accepted flit rate = 0.08 (at node 11)
Average injected packet length = 1.99938
Average accepted packet length = 2.00257
Total in-flight flits = 132 (0 measured)
latency change    = 1
throughput change = 1
latency change    = 1
throughput change = 1
0
Class 0:
Minimum packet latency = 8
Average packet latency = 41.9931
Maximum packet latency = 149
Minimum network latency = 8
Average network latency = 41.6953
Maximum network latency = 147
Slowest packet = 11837
Minimum flit latency = 7
Average flit latency = 39.983
Maximum flit latency = 146
Slowest flit = 23675
Minimum fragmentation = 0
Average fragmentation = 1.35922
Maximum fragmentation = 23
Minimum injected packet rate = 0.1185 (at node 51)
Average injected packet rate = 0.144875
Maximum injected packet rate = 0.1645 (at node 3)
Minimum accepted packet rate = 0.125 (at node 52)
Average accepted packet rate = 0.14182
Maximum accepted packet rate = 0.159 (at node 14)
Minimum injected flit rate = 0.237 (at node 51)
Average injected flit rate = 0.289656
Maximum injected flit rate = 0.329 (at node 3)
Minimum accepted flit rate = 0.25 (at node 52)
Average accepted flit rate = 0.283781
Maximum accepted flit rate = 0.318 (at node 14)
Average injected packet length = 1.99935
Average accepted packet length = 2.00099
Total in-flight flits = 766 (0 measured)
Class 1:
Minimum packet latency = 8
Average packet latency = 42.2858
Maximum packet latency = 130
Minimum network latency = 8
Average network latency = 42.1766
Maximum network latency = 130
Slowest packet = 3254
Minimum flit latency = 7
Average flit latency = 40.3028
Maximum flit latency = 129
Slowest flit = 6508
Minimum fragmentation = 0
Average fragmentation = 1.37414
Maximum fragmentation = 22
Minimum injected packet rate = 0.019 (at node 16)
Average injected packet rate = 0.0255156
Maximum injected packet rate = 0.034 (at node 6)
Minimum accepted packet rate = 0.0135 (at node 7)
Average accepted packet rate = 0.0249531
Maximum accepted packet rate = 0.0335 (at node 59)
Minimum injected flit rate = 0.0375 (at node 16)
Average injected flit rate = 0.0510234
Maximum injected flit rate = 0.068 (at node 6)
Minimum accepted flit rate = 0.027 (at node 7)
Average accepted flit rate = 0.0499453
Maximum accepted flit rate = 0.067 (at node 59)
Average injected packet length = 1.99969
Average accepted packet length = 2.00157
Total in-flight flits = 139 (0 measured)
latency change    = 0.00936569
throughput change = 0.0224645
latency change    = 0.00318831
throughput change = 0.0251838
0
Class 0:
Minimum packet latency = 8
Average packet latency = 42.422
Maximum packet latency = 140
Minimum network latency = 8
Average network latency = 42.1241
Maximum network latency = 140
Slowest packet = 26151
Minimum flit latency = 7
Average flit latency = 40.3779
Maximum flit latency = 139
Slowest flit = 52302
Minimum fragmentation = 0
Average fragmentation = 1.41118
Maximum fragmentation = 24
Minimum injected packet rate = 0.119 (at node 48)
Average injected packet rate = 0.145
Maximum injected packet rate = 0.168 (at node 47)
Minimum accepted packet rate = 0.126 (at node 3)
Average accepted packet rate = 0.145578
Maximum accepted packet rate = 0.172 (at node 13)
Minimum injected flit rate = 0.238 (at node 48)
Average injected flit rate = 0.290047
Maximum injected flit rate = 0.336 (at node 47)
Minimum accepted flit rate = 0.252 (at node 3)
Average accepted flit rate = 0.291172
Maximum accepted flit rate = 0.344 (at node 13)
Average injected packet length = 2.00032
Average accepted packet length = 2.00011
Total in-flight flits = 691 (0 measured)
Class 1:
Minimum packet latency = 8
Average packet latency = 42.6308
Maximum packet latency = 151
Minimum network latency = 8
Average network latency = 42.5316
Maximum network latency = 151
Slowest packet = 25961
Minimum flit latency = 7
Average flit latency = 40.6464
Maximum flit latency = 149
Slowest flit = 51923
Minimum fragmentation = 0
Average fragmentation = 1.29709
Maximum fragmentation = 15
Minimum injected packet rate = 0.013 (at node 37)
Average injected packet rate = 0.0244688
Maximum injected packet rate = 0.037 (at node 62)
Minimum accepted packet rate = 0.015 (at node 41)
Average accepted packet rate = 0.0247188
Maximum accepted packet rate = 0.038 (at node 59)
Minimum injected flit rate = 0.026 (at node 37)
Average injected flit rate = 0.0489531
Maximum injected flit rate = 0.074 (at node 62)
Minimum accepted flit rate = 0.03 (at node 41)
Average accepted flit rate = 0.0494531
Maximum accepted flit rate = 0.076 (at node 59)
Average injected packet length = 2.00064
Average accepted packet length = 2.00063
Total in-flight flits = 106 (0 measured)
latency change    = 0.0101106
throughput change = 0.0253823
latency change    = 0.0080927
throughput change = 0.00995261
Warmed up ...Time used is 3000 cycles
1
Class 0:
Minimum packet latency = 8
Average packet latency = 40.9335
Maximum packet latency = 124
Minimum network latency = 8
Average network latency = 40.6411
Maximum network latency = 124
Slowest packet = 33618
Minimum flit latency = 6
Average flit latency = 39.2257
Maximum flit latency = 123
Slowest flit = 64217
Minimum fragmentation = 0
Average fragmentation = 1.30681
Maximum fragmentation = 15
Minimum injected packet rate = 0.121 (at node 51)
Average injected packet rate = 0.144094
Maximum injected packet rate = 0.174 (at node 46)
Minimum accepted packet rate = 0.124 (at node 41)
Average accepted packet rate = 0.143203
Maximum accepted packet rate = 0.166 (at node 53)
Minimum injected flit rate = 0.242 (at node 51)
Average injected flit rate = 0.288125
Maximum injected flit rate = 0.347 (at node 46)
Minimum accepted flit rate = 0.249 (at node 41)
Average accepted flit rate = 0.286609
Maximum accepted flit rate = 0.331 (at node 53)
Average injected packet length = 1.99957
Average accepted packet length = 2.00142
Total in-flight flits = 790 (790 measured)
Class 1:
Minimum packet latency = 8
Average packet latency = 41.5395
Maximum packet latency = 129
Minimum network latency = 8
Average network latency = 41.4378
Maximum network latency = 129
Slowest packet = 39520
Minimum flit latency = 6
Average flit latency = 39.6515
Maximum flit latency = 127
Slowest flit = 79041
Minimum fragmentation = 0
Average fragmentation = 1.35039
Maximum fragmentation = 16
Minimum injected packet rate = 0.016 (at node 42)
Average injected packet rate = 0.0252813
Maximum injected packet rate = 0.036 (at node 0)
Minimum accepted packet rate = 0.017 (at node 28)
Average accepted packet rate = 0.025
Maximum accepted packet rate = 0.037 (at node 24)
Minimum injected flit rate = 0.032 (at node 42)
Average injected flit rate = 0.0505312
Maximum injected flit rate = 0.072 (at node 0)
Minimum accepted flit rate = 0.034 (at node 28)
Average accepted flit rate = 0.0499531
Maximum accepted flit rate = 0.074 (at node 24)
Average injected packet length = 1.99876
Average accepted packet length = 1.99812
Total in-flight flits = 145 (145 measured)
latency change    = 0.0363648
throughput change = 0.0159189
latency change    = 0.0262723
throughput change = 0.0100094
1
Class 0:
Minimum packet latency = 8
Average packet latency = 41.633
Maximum packet latency = 130
Minimum network latency = 8
Average network latency = 41.3383
Maximum network latency = 130
Slowest packet = 51782
Minimum flit latency = 6
Average flit latency = 39.7573
Maximum flit latency = 129
Slowest flit = 103565
Minimum fragmentation = 0
Average fragmentation = 1.34248
Maximum fragmentation = 24
Minimum injected packet rate = 0.1265 (at node 51)
Average injected packet rate = 0.144648
Maximum injected packet rate = 0.17 (at node 46)
Minimum accepted packet rate = 0.13 (at node 46)
Average accepted packet rate = 0.144203
Maximum accepted packet rate = 0.1605 (at node 58)
Minimum injected flit rate = 0.253 (at node 51)
Average injected flit rate = 0.289273
Maximum injected flit rate = 0.34 (at node 46)
Minimum accepted flit rate = 0.261 (at node 46)
Average accepted flit rate = 0.288438
Maximum accepted flit rate = 0.321 (at node 58)
Average injected packet length = 1.99984
Average accepted packet length = 2.00022
Total in-flight flits = 799 (799 measured)
Class 1:
Minimum packet latency = 8
Average packet latency = 42.1094
Maximum packet latency = 129
Minimum network latency = 8
Average network latency = 42.0192
Maximum network latency = 129
Slowest packet = 39520
Minimum flit latency = 6
Average flit latency = 40.214
Maximum flit latency = 127
Slowest flit = 79041
Minimum fragmentation = 0
Average fragmentation = 1.31392
Maximum fragmentation = 20
Minimum injected packet rate = 0.0155 (at node 42)
Average injected packet rate = 0.0248594
Maximum injected packet rate = 0.032 (at node 23)
Minimum accepted packet rate = 0.018 (at node 34)
Average accepted packet rate = 0.0248516
Maximum accepted packet rate = 0.0325 (at node 24)
Minimum injected flit rate = 0.031 (at node 42)
Average injected flit rate = 0.0497109
Maximum injected flit rate = 0.064 (at node 23)
Minimum accepted flit rate = 0.036 (at node 34)
Average accepted flit rate = 0.0496953
Maximum accepted flit rate = 0.065 (at node 24)
Average injected packet length = 1.99969
Average accepted packet length = 1.99969
Total in-flight flits = 109 (109 measured)
latency change    = 0.016803
throughput change = 0.00633803
latency change    = 0.0135345
throughput change = 0.00518786
1
Class 0:
Minimum packet latency = 8
Average packet latency = 41.7921
Maximum packet latency = 132
Minimum network latency = 8
Average network latency = 41.4991
Maximum network latency = 132
Slowest packet = 61999
Minimum flit latency = 6
Average flit latency = 39.8691
Maximum flit latency = 131
Slowest flit = 123999
Minimum fragmentation = 0
Average fragmentation = 1.35674
Maximum fragmentation = 24
Minimum injected packet rate = 0.132333 (at node 54)
Average injected packet rate = 0.14488
Maximum injected packet rate = 0.162 (at node 46)
Minimum accepted packet rate = 0.125 (at node 59)
Average accepted packet rate = 0.144401
Maximum accepted packet rate = 0.158667 (at node 58)
Minimum injected flit rate = 0.264667 (at node 54)
Average injected flit rate = 0.28974
Maximum injected flit rate = 0.324 (at node 46)
Minimum accepted flit rate = 0.25 (at node 59)
Average accepted flit rate = 0.288859
Maximum accepted flit rate = 0.317333 (at node 58)
Average injected packet length = 1.99986
Average accepted packet length = 2.0004
Total in-flight flits = 862 (862 measured)
Class 1:
Minimum packet latency = 8
Average packet latency = 42.2763
Maximum packet latency = 129
Minimum network latency = 8
Average network latency = 42.179
Maximum network latency = 129
Slowest packet = 39520
Minimum flit latency = 6
Average flit latency = 40.3426
Maximum flit latency = 127
Slowest flit = 79041
Minimum fragmentation = 0
Average fragmentation = 1.31959
Maximum fragmentation = 20
Minimum injected packet rate = 0.017 (at node 42)
Average injected packet rate = 0.0249896
Maximum injected packet rate = 0.0326667 (at node 23)
Minimum accepted packet rate = 0.0193333 (at node 34)
Average accepted packet rate = 0.0249323
Maximum accepted packet rate = 0.0313333 (at node 62)
Minimum injected flit rate = 0.034 (at node 42)
Average injected flit rate = 0.049974
Maximum injected flit rate = 0.0653333 (at node 23)
Minimum accepted flit rate = 0.0386667 (at node 34)
Average accepted flit rate = 0.0498594
Maximum accepted flit rate = 0.0626667 (at node 62)
Average injected packet length = 1.99979
Average accepted packet length = 1.99979
Total in-flight flits = 129 (129 measured)
latency change    = 0.00380608
throughput change = 0.00146049
latency change    = 0.00394602
throughput change = 0.0032905
Draining all recorded packets ...
Draining remaining packets ...
Time taken is 6177 cycles
====== Traffic class 0 ======
Overall minimum packet latency = 8 (1 samples)
Overall average packet latency = 41.9467 (1 samples)
Overall maximum packet latency = 132 (1 samples)
Overall minimum network latency = 8 (1 samples)
Overall average network latency = 41.6525 (1 samples)
Overall maximum network latency = 132 (1 samples)
Overall minimum flit latency = 6 (1 samples)
Overall average flit latency = 40.0505 (1 samples)
Overall maximum flit latency = 131 (1 samples)
Overall minimum fragmentation = 0 (1 samples)
Overall average fragmentation = 1.36317 (1 samples)
Overall maximum fragmentation = 24 (1 samples)
Overall minimum injected packet rate = 0.132333 (1 samples)
Overall average injected packet rate = 0.14488 (1 samples)
Overall maximum injected packet rate = 0.162 (1 samples)
Overall minimum accepted packet rate = 0.125 (1 samples)
Overall average accepted packet rate = 0.144401 (1 samples)
Overall maximum accepted packet rate = 0.158667 (1 samples)
Overall minimum injected flit rate = 0.264667 (1 samples)
Overall average injected flit rate = 0.28974 (1 samples)
Overall maximum injected flit rate = 0.324 (1 samples)
Overall minimum accepted flit rate = 0.25 (1 samples)
Overall average accepted flit rate = 0.288859 (1 samples)
Overall maximum accepted flit rate = 0.317333 (1 samples)
Overall average injected packet size = 1.99986 (1 samples)
Overall average accepted packet size = 2.0004 (1 samples)
Overall average hops = 6.24205 (1 samples)
====== Traffic class 1 ======
Overall minimum packet latency = 8 (1 samples)
Overall average packet latency = 42.4108 (1 samples)
Overall maximum packet latency = 129 (1 samples)
Overall minimum network latency = 8 (1 samples)
Overall average network latency = 42.3147 (1 samples)
Overall maximum network latency = 129 (1 samples)
Overall minimum flit latency = 6 (1 samples)
Overall average flit latency = 40.5236 (1 samples)
Overall maximum flit latency = 127 (1 samples)
Overall minimum fragmentation = 0 (1 samples)
Overall average fragmentation = 1.32243 (1 samples)
Overall maximum fragmentation = 20 (1 samples)
Overall minimum injected packet rate = 0.017 (1 samples)
Overall average injected packet rate = 0.0249896 (1 samples)
Overall maximum injected packet rate = 0.0326667 (1 samples)
Overall minimum accepted packet rate = 0.0193333 (1 samples)
Overall average accepted packet rate = 0.0249323 (1 samples)
Overall maximum accepted packet rate = 0.0313333 (1 samples)
Overall minimum injected flit rate = 0.034 (1 samples)
Overall average injected flit rate = 0.049974 (1 samples)
Overall maximum injected flit rate = 0.0653333 (1 samples)
Overall minimum accepted flit rate = 0.0386667 (1 samples)
Overall average accepted flit rate = 0.0498594 (1 samples)
Overall maximum accepted flit rate = 0.0626667 (1 samples)
Overall average injected packet size = 1.99979 (1 samples)
Overall average accepted packet size = 1.99979 (1 samples)
Overall average hops = 6.34806 (1 samples)
Total run time 8.47133
