BEGIN Configuration File: ./examples/project_inputs/config-iq_tp-uniform_c1ir-0.05_c0ir-0.25_prio-islip
//
// EVC Router Config File -         
//
// Jason Deng, Mike Wang        
//        

//
// Flow control
//

num_vcs     = 5;
vc_buf_size = 6;

wait_for_tail_credit = 0;

vc_allocator = islip;
sw_allocator = islip;
alloc_iters  = 2;

credit_delay   = 2;
routing_delay  = 1;
vc_alloc_delay = 1;
sw_alloc_delay = 1;
st_final_delay = 1;

input_speedup     = 1;
output_speedup    = 1;
internal_speedup  = 1.0;

//
// Traffic
//

sim_type = latency;

warmup_periods = 3;
sample_period  = 1000;
sim_count = 1;

//
//topoogy
//

topology = mesh;
k  = 8;
n  = 2;

//
// Routing
//

router = iq;
routing_function = dor;

packet_size = 2;
use_read_write = 0;

traffic  = uniform;
injection_rate = {0.25,0.05};
injection_rate_uses_flits = 1;

classes = 2;
class_priority = {0,0};
priority = class;

noq = 0;
hold_switch_for_packet = 0;
vc_prioritize_empty = 0;

//
// express virtual channel settings
//

evc = 1;
num_evcs = 1;
evc_prioritized_class = 1;
selective_vc_request = 1;
hold_switch_for_evc_packet = 1;
evc_next_route = 1;

END Configuration File: ./examples/project_inputs/config-iq_tp-uniform_c1ir-0.05_c0ir-0.25_prio-islip
0
Class 0:
Minimum packet latency = 8
Average packet latency = 39.0869
Maximum packet latency = 121
Minimum network latency = 8
Average network latency = 38.8494
Maximum network latency = 121
Slowest packet = 2794
Minimum flit latency = 7
Average flit latency = 37.2854
Maximum flit latency = 120
Slowest flit = 5588
Minimum fragmentation = 0
Average fragmentation = 1.06706
Maximum fragmentation = 18
Minimum injected packet rate = 0.102 (at node 13)
Average injected packet rate = 0.123484
Maximum injected packet rate = 0.153 (at node 0)
Minimum accepted packet rate = 0.097 (at node 52)
Average accepted packet rate = 0.118828
Maximum accepted packet rate = 0.146 (at node 24)
Minimum injected flit rate = 0.204 (at node 13)
Average injected flit rate = 0.246797
Maximum injected flit rate = 0.306 (at node 0)
Minimum accepted flit rate = 0.194 (at node 52)
Average accepted flit rate = 0.237953
Maximum accepted flit rate = 0.292 (at node 24)
Average injected packet length = 1.99861
Average accepted packet length = 2.0025
Total in-flight flits = 577 (0 measured)
Class 1:
Minimum packet latency = 8
Average packet latency = 38.5874
Maximum packet latency = 94
Minimum network latency = 8
Average network latency = 38.5077
Maximum network latency = 94
Slowest packet = 1369
Minimum flit latency = 7
Average flit latency = 36.8226
Maximum flit latency = 93
Slowest flit = 2738
Minimum fragmentation = 0
Average fragmentation = 1.03635
Maximum fragmentation = 11
Minimum injected packet rate = 0.013 (at node 36)
Average injected packet rate = 0.0256094
Maximum injected packet rate = 0.038 (at node 24)
Minimum accepted packet rate = 0.014 (at node 29)
Average accepted packet rate = 0.0245
Maximum accepted packet rate = 0.041 (at node 38)
Minimum injected flit rate = 0.026 (at node 36)
Average injected flit rate = 0.0512031
Maximum injected flit rate = 0.076 (at node 24)
Minimum accepted flit rate = 0.028 (at node 29)
Average accepted flit rate = 0.0490625
Maximum accepted flit rate = 0.083 (at node 38)
Average injected packet length = 1.99939
Average accepted packet length = 2.00255
Total in-flight flits = 138 (0 measured)
latency change    = 1
throughput change = 1
latency change    = 1
throughput change = 1
0
Class 0:
Minimum packet latency = 8
Average packet latency = 39.2535
Maximum packet latency = 121
Minimum network latency = 8
Average network latency = 39.017
Maximum network latency = 121
Slowest packet = 2794
Minimum flit latency = 6
Average flit latency = 37.4358
Maximum flit latency = 120
Slowest flit = 5588
Minimum fragmentation = 0
Average fragmentation = 1.09756
Maximum fragmentation = 21
Minimum injected packet rate = 0.1065 (at node 47)
Average injected packet rate = 0.124547
Maximum injected packet rate = 0.1485 (at node 0)
Minimum accepted packet rate = 0.1035 (at node 52)
Average accepted packet rate = 0.122117
Maximum accepted packet rate = 0.1385 (at node 14)
Minimum injected flit rate = 0.213 (at node 47)
Average injected flit rate = 0.249016
Maximum injected flit rate = 0.297 (at node 0)
Minimum accepted flit rate = 0.207 (at node 52)
Average accepted flit rate = 0.244328
Maximum accepted flit rate = 0.2775 (at node 14)
Average injected packet length = 1.99937
Average accepted packet length = 2.00077
Total in-flight flits = 612 (0 measured)
Class 1:
Minimum packet latency = 8
Average packet latency = 39.0877
Maximum packet latency = 104
Minimum network latency = 8
Average network latency = 39.006
Maximum network latency = 104
Slowest packet = 15045
Minimum flit latency = 7
Average flit latency = 37.2913
Maximum flit latency = 103
Slowest flit = 30091
Minimum fragmentation = 0
Average fragmentation = 1.1013
Maximum fragmentation = 15
Minimum injected packet rate = 0.0165 (at node 43)
Average injected packet rate = 0.0252188
Maximum injected packet rate = 0.036 (at node 24)
Minimum accepted packet rate = 0.016 (at node 62)
Average accepted packet rate = 0.0246797
Maximum accepted packet rate = 0.0325 (at node 60)
Minimum injected flit rate = 0.033 (at node 43)
Average injected flit rate = 0.0504219
Maximum injected flit rate = 0.072 (at node 24)
Minimum accepted flit rate = 0.032 (at node 62)
Average accepted flit rate = 0.0493984
Maximum accepted flit rate = 0.065 (at node 60)
Average injected packet length = 1.99938
Average accepted packet length = 2.00158
Total in-flight flits = 133 (0 measured)
latency change    = 0.00424304
throughput change = 0.026092
latency change    = 0.0127998
throughput change = 0.00680057
0
Class 0:
Minimum packet latency = 8
Average packet latency = 39.1489
Maximum packet latency = 135
Minimum network latency = 8
Average network latency = 38.9208
Maximum network latency = 133
Slowest packet = 22467
Minimum flit latency = 7
Average flit latency = 37.3504
Maximum flit latency = 132
Slowest flit = 44934
Minimum fragmentation = 0
Average fragmentation = 1.06527
Maximum fragmentation = 17
Minimum injected packet rate = 0.094 (at node 12)
Average injected packet rate = 0.124156
Maximum injected packet rate = 0.141 (at node 48)
Minimum accepted packet rate = 0.1 (at node 38)
Average accepted packet rate = 0.12425
Maximum accepted packet rate = 0.147 (at node 53)
Minimum injected flit rate = 0.188 (at node 12)
Average injected flit rate = 0.248359
Maximum injected flit rate = 0.282 (at node 48)
Minimum accepted flit rate = 0.2 (at node 38)
Average accepted flit rate = 0.248531
Maximum accepted flit rate = 0.293 (at node 53)
Average injected packet length = 2.00038
Average accepted packet length = 2.00025
Total in-flight flits = 596 (0 measured)
Class 1:
Minimum packet latency = 8
Average packet latency = 39.313
Maximum packet latency = 119
Minimum network latency = 8
Average network latency = 39.2188
Maximum network latency = 118
Slowest packet = 19839
Minimum flit latency = 7
Average flit latency = 37.4984
Maximum flit latency = 117
Slowest flit = 39678
Minimum fragmentation = 0
Average fragmentation = 1.08167
Maximum fragmentation = 20
Minimum injected packet rate = 0.014 (at node 60)
Average injected packet rate = 0.0249063
Maximum injected packet rate = 0.039 (at node 22)
Minimum accepted packet rate = 0.016 (at node 17)
Average accepted packet rate = 0.0250625
Maximum accepted packet rate = 0.041 (at node 8)
Minimum injected flit rate = 0.028 (at node 60)
Average injected flit rate = 0.0498437
Maximum injected flit rate = 0.078 (at node 22)
Minimum accepted flit rate = 0.033 (at node 17)
Average accepted flit rate = 0.0500937
Maximum accepted flit rate = 0.081 (at node 8)
Average injected packet length = 2.00125
Average accepted packet length = 1.99875
Total in-flight flits = 115 (0 measured)
latency change    = 0.00267127
throughput change = 0.0169119
latency change    = 0.00573047
throughput change = 0.0138802
Warmed up ...Time used is 3000 cycles
1
Class 0:
Minimum packet latency = 8
Average packet latency = 38.9958
Maximum packet latency = 114
Minimum network latency = 8
Average network latency = 38.7518
Maximum network latency = 113
Slowest packet = 30101
Minimum flit latency = 6
Average flit latency = 37.4443
Maximum flit latency = 112
Slowest flit = 60203
Minimum fragmentation = 0
Average fragmentation = 1.09559
Maximum fragmentation = 20
Minimum injected packet rate = 0.087 (at node 29)
Average injected packet rate = 0.12325
Maximum injected packet rate = 0.152 (at node 43)
Minimum accepted packet rate = 0.095 (at node 17)
Average accepted packet rate = 0.122781
Maximum accepted packet rate = 0.147 (at node 24)
Minimum injected flit rate = 0.174 (at node 29)
Average injected flit rate = 0.246484
Maximum injected flit rate = 0.304 (at node 43)
Minimum accepted flit rate = 0.189 (at node 17)
Average accepted flit rate = 0.245672
Maximum accepted flit rate = 0.294 (at node 24)
Average injected packet length = 1.99987
Average accepted packet length = 2.00089
Total in-flight flits = 649 (649 measured)
Class 1:
Minimum packet latency = 8
Average packet latency = 39.1927
Maximum packet latency = 132
Minimum network latency = 8
Average network latency = 39.0901
Maximum network latency = 129
Slowest packet = 30428
Minimum flit latency = 7
Average flit latency = 37.5101
Maximum flit latency = 128
Slowest flit = 60857
Minimum fragmentation = 0
Average fragmentation = 1.0607
Maximum fragmentation = 14
Minimum injected packet rate = 0.016 (at node 5)
Average injected packet rate = 0.0259531
Maximum injected packet rate = 0.038 (at node 54)
Minimum accepted packet rate = 0.014 (at node 0)
Average accepted packet rate = 0.0258906
Maximum accepted packet rate = 0.037 (at node 51)
Minimum injected flit rate = 0.032 (at node 5)
Average injected flit rate = 0.051875
Maximum injected flit rate = 0.076 (at node 54)
Minimum accepted flit rate = 0.029 (at node 0)
Average accepted flit rate = 0.0517969
Maximum accepted flit rate = 0.074 (at node 51)
Average injected packet length = 1.9988
Average accepted packet length = 2.0006
Total in-flight flits = 122 (122 measured)
latency change    = 0.00392684
throughput change = 0.011639
latency change    = 0.00306757
throughput change = 0.0328808
1
Class 0:
Minimum packet latency = 8
Average packet latency = 39.2445
Maximum packet latency = 114
Minimum network latency = 8
Average network latency = 39.0003
Maximum network latency = 113
Slowest packet = 30101
Minimum flit latency = 6
Average flit latency = 37.5567
Maximum flit latency = 112
Slowest flit = 60203
Minimum fragmentation = 0
Average fragmentation = 1.08113
Maximum fragmentation = 20
Minimum injected packet rate = 0.104 (at node 29)
Average injected packet rate = 0.124094
Maximum injected packet rate = 0.142 (at node 35)
Minimum accepted packet rate = 0.1105 (at node 28)
Average accepted packet rate = 0.123906
Maximum accepted packet rate = 0.138 (at node 57)
Minimum injected flit rate = 0.208 (at node 29)
Average injected flit rate = 0.248172
Maximum injected flit rate = 0.284 (at node 35)
Minimum accepted flit rate = 0.221 (at node 28)
Average accepted flit rate = 0.247867
Maximum accepted flit rate = 0.276 (at node 57)
Average injected packet length = 1.99987
Average accepted packet length = 2.00044
Total in-flight flits = 637 (637 measured)
Class 1:
Minimum packet latency = 8
Average packet latency = 38.9399
Maximum packet latency = 132
Minimum network latency = 8
Average network latency = 38.8461
Maximum network latency = 129
Slowest packet = 30428
Minimum flit latency = 7
Average flit latency = 37.2034
Maximum flit latency = 128
Slowest flit = 60857
Minimum fragmentation = 0
Average fragmentation = 1.08656
Maximum fragmentation = 16
Minimum injected packet rate = 0.0195 (at node 32)
Average injected packet rate = 0.0253516
Maximum injected packet rate = 0.034 (at node 54)
Minimum accepted packet rate = 0.0155 (at node 6)
Average accepted packet rate = 0.0252813
Maximum accepted packet rate = 0.0335 (at node 53)
Minimum injected flit rate = 0.039 (at node 32)
Average injected flit rate = 0.0506953
Maximum injected flit rate = 0.068 (at node 54)
Minimum accepted flit rate = 0.031 (at node 6)
Average accepted flit rate = 0.0505547
Maximum accepted flit rate = 0.067 (at node 53)
Average injected packet length = 1.99969
Average accepted packet length = 1.99969
Total in-flight flits = 134 (134 measured)
latency change    = 0.00633781
throughput change = 0.00885681
latency change    = 0.00649361
throughput change = 0.0245712
1
Class 0:
Minimum packet latency = 8
Average packet latency = 39.2788
Maximum packet latency = 114
Minimum network latency = 8
Average network latency = 39.0299
Maximum network latency = 113
Slowest packet = 30101
Minimum flit latency = 6
Average flit latency = 37.5332
Maximum flit latency = 112
Slowest flit = 60203
Minimum fragmentation = 0
Average fragmentation = 1.09747
Maximum fragmentation = 20
Minimum injected packet rate = 0.108667 (at node 29)
Average injected packet rate = 0.124818
Maximum injected packet rate = 0.139667 (at node 9)
Minimum accepted packet rate = 0.11 (at node 17)
Average accepted packet rate = 0.124542
Maximum accepted packet rate = 0.141333 (at node 57)
Minimum injected flit rate = 0.217333 (at node 29)
Average injected flit rate = 0.249635
Maximum injected flit rate = 0.279333 (at node 9)
Minimum accepted flit rate = 0.219667 (at node 17)
Average accepted flit rate = 0.249156
Maximum accepted flit rate = 0.282667 (at node 57)
Average injected packet length = 2
Average accepted packet length = 2.00059
Total in-flight flits = 688 (688 measured)
Class 1:
Minimum packet latency = 8
Average packet latency = 39.3456
Maximum packet latency = 132
Minimum network latency = 8
Average network latency = 39.2571
Maximum network latency = 129
Slowest packet = 30428
Minimum flit latency = 7
Average flit latency = 37.5702
Maximum flit latency = 128
Slowest flit = 60857
Minimum fragmentation = 0
Average fragmentation = 1.11038
Maximum fragmentation = 16
Minimum injected packet rate = 0.02 (at node 50)
Average injected packet rate = 0.025599
Maximum injected packet rate = 0.032 (at node 39)
Minimum accepted packet rate = 0.0173333 (at node 0)
Average accepted packet rate = 0.0255521
Maximum accepted packet rate = 0.032 (at node 35)
Minimum injected flit rate = 0.04 (at node 50)
Average injected flit rate = 0.0511875
Maximum injected flit rate = 0.064 (at node 39)
Minimum accepted flit rate = 0.0346667 (at node 0)
Average accepted flit rate = 0.051099
Maximum accepted flit rate = 0.064 (at node 35)
Average injected packet length = 1.99959
Average accepted packet length = 1.9998
Total in-flight flits = 134 (134 measured)
latency change    = 0.000872887
throughput change = 0.00517371
latency change    = 0.0103111
throughput change = 0.0106513
Draining all recorded packets ...
Draining remaining packets ...
Time taken is 6154 cycles
====== Traffic class 0 ======
Overall minimum packet latency = 8 (1 samples)
Overall average packet latency = 39.416 (1 samples)
Overall maximum packet latency = 117 (1 samples)
Overall minimum network latency = 8 (1 samples)
Overall average network latency = 39.1663 (1 samples)
Overall maximum network latency = 114 (1 samples)
Overall minimum flit latency = 6 (1 samples)
Overall average flit latency = 37.6569 (1 samples)
Overall maximum flit latency = 113 (1 samples)
Overall minimum fragmentation = 0 (1 samples)
Overall average fragmentation = 1.10285 (1 samples)
Overall maximum fragmentation = 20 (1 samples)
Overall minimum injected packet rate = 0.108667 (1 samples)
Overall average injected packet rate = 0.124818 (1 samples)
Overall maximum injected packet rate = 0.139667 (1 samples)
Overall minimum accepted packet rate = 0.11 (1 samples)
Overall average accepted packet rate = 0.124542 (1 samples)
Overall maximum accepted packet rate = 0.141333 (1 samples)
Overall minimum injected flit rate = 0.217333 (1 samples)
Overall average injected flit rate = 0.249635 (1 samples)
Overall maximum injected flit rate = 0.279333 (1 samples)
Overall minimum accepted flit rate = 0.219667 (1 samples)
Overall average accepted flit rate = 0.249156 (1 samples)
Overall maximum accepted flit rate = 0.282667 (1 samples)
Overall average injected packet size = 2 (1 samples)
Overall average accepted packet size = 2.00059 (1 samples)
Overall average hops = 6.25368 (1 samples)
====== Traffic class 1 ======
Overall minimum packet latency = 8 (1 samples)
Overall average packet latency = 39.4596 (1 samples)
Overall maximum packet latency = 132 (1 samples)
Overall minimum network latency = 8 (1 samples)
Overall average network latency = 39.3695 (1 samples)
Overall maximum network latency = 129 (1 samples)
Overall minimum flit latency = 7 (1 samples)
Overall average flit latency = 37.631 (1 samples)
Overall maximum flit latency = 128 (1 samples)
Overall minimum fragmentation = 0 (1 samples)
Overall average fragmentation = 1.10987 (1 samples)
Overall maximum fragmentation = 16 (1 samples)
Overall minimum injected packet rate = 0.02 (1 samples)
Overall average injected packet rate = 0.025599 (1 samples)
Overall maximum injected packet rate = 0.032 (1 samples)
Overall minimum accepted packet rate = 0.0173333 (1 samples)
Overall average accepted packet rate = 0.0255521 (1 samples)
Overall maximum accepted packet rate = 0.032 (1 samples)
Overall minimum injected flit rate = 0.04 (1 samples)
Overall average injected flit rate = 0.0511875 (1 samples)
Overall maximum injected flit rate = 0.064 (1 samples)
Overall minimum accepted flit rate = 0.0346667 (1 samples)
Overall average accepted flit rate = 0.051099 (1 samples)
Overall maximum accepted flit rate = 0.064 (1 samples)
Overall average injected packet size = 1.99959 (1 samples)
Overall average accepted packet size = 1.9998 (1 samples)
Overall average hops = 6.26022 (1 samples)
Total run time 7.50004
