BEGIN Configuration File: ./examples/project_inputs/config-iqevc_tp-transpose_c1ir-0.05_c0ir-0.21_prio-select
//
// EVC Router Config File -         
//
// Jason Deng, Mike Wang        
//        

//
// Flow control
//

num_vcs     = 5;
vc_buf_size = 6;

wait_for_tail_credit = 0;

vc_allocator = select;
sw_allocator = select;
alloc_iters  = 2;

credit_delay   = 2;
routing_delay  = 1;
vc_alloc_delay = 1;
sw_alloc_delay = 1;
st_final_delay = 1;

input_speedup     = 1;
output_speedup    = 1;
internal_speedup  = 1.0;

//
// Traffic
//

sim_type = latency;

warmup_periods = 3;
sample_period  = 1000;
sim_count = 1;

//
//topoogy
//

topology = mesh;
k  = 8;
n  = 2;

//
// Routing
//

router = iqevc;
routing_function = dor;

packet_size = 2;
use_read_write = 0;

traffic  = transpose;
injection_rate = {0.21,0.05};
injection_rate_uses_flits = 1;

classes = 2;
class_priority = {0,1};
priority = class;

noq = 0;
hold_switch_for_packet = 0;
vc_prioritize_empty = 0;

//
// express virtual channel settings
//

evc = 1;
num_evcs = 1;
evc_prioritized_class = 1;
selective_vc_request = 1;
hold_switch_for_evc_packet = 1;
evc_next_route = 0;

END Configuration File: ./examples/project_inputs/config-iqevc_tp-transpose_c1ir-0.05_c0ir-0.21_prio-select
0
Class 0:
Minimum packet latency = 8
Average packet latency = 83.8862
Maximum packet latency = 826
Minimum network latency = 8
Average network latency = 82.4144
Maximum network latency = 826
Slowest packet = 858
Minimum flit latency = 7
Average flit latency = 80.5976
Maximum flit latency = 825
Slowest flit = 1716
Minimum fragmentation = 0
Average fragmentation = 1.49671
Maximum fragmentation = 75
Minimum injected packet rate = 0.031 (at node 6)
Average injected packet rate = 0.0890625
Maximum injected packet rate = 0.119 (at node 47)
Minimum accepted packet rate = 0.009 (at node 48)
Average accepted packet rate = 0.0759062
Maximum accepted packet rate = 0.115 (at node 2)
Minimum injected flit rate = 0.062 (at node 6)
Average injected flit rate = 0.177953
Maximum injected flit rate = 0.237 (at node 47)
Minimum accepted flit rate = 0.018 (at node 48)
Average accepted flit rate = 0.151953
Maximum accepted flit rate = 0.23 (at node 2)
Average injected packet length = 1.99807
Average accepted packet length = 2.00185
Total in-flight flits = 1715 (0 measured)
Class 1:
Minimum packet latency = 8
Average packet latency = 63.4235
Maximum packet latency = 657
Minimum network latency = 8
Average network latency = 59.7751
Maximum network latency = 657
Slowest packet = 2608
Minimum flit latency = 7
Average flit latency = 58.5573
Maximum flit latency = 656
Slowest flit = 5216
Minimum fragmentation = 0
Average fragmentation = 0
Maximum fragmentation = 0
Minimum injected packet rate = 0.008 (at node 7)
Average injected packet rate = 0.0242188
Maximum injected packet rate = 0.037 (at node 45)
Minimum accepted packet rate = 0.003 (at node 48)
Average accepted packet rate = 0.0219531
Maximum accepted packet rate = 0.037 (at node 45)
Minimum injected flit rate = 0.016 (at node 7)
Average injected flit rate = 0.0484062
Maximum injected flit rate = 0.074 (at node 45)
Minimum accepted flit rate = 0.006 (at node 48)
Average accepted flit rate = 0.0439375
Maximum accepted flit rate = 0.074 (at node 45)
Average injected packet length = 1.99871
Average accepted packet length = 2.00142
Total in-flight flits = 312 (0 measured)
latency change    = 1
throughput change = 1
latency change    = 1
throughput change = 1
0
Class 0:
Minimum packet latency = 8
Average packet latency = 127.932
Maximum packet latency = 1794
Minimum network latency = 8
Average network latency = 111.499
Maximum network latency = 1794
Slowest packet = 1339
Minimum flit latency = 5
Average flit latency = 109.572
Maximum flit latency = 1793
Slowest flit = 2678
Minimum fragmentation = 0
Average fragmentation = 1.67354
Maximum fragmentation = 142
Minimum injected packet rate = 0.0205 (at node 57)
Average injected packet rate = 0.0836797
Maximum injected packet rate = 0.1135 (at node 29)
Minimum accepted packet rate = 0.0085 (at node 7)
Average accepted packet rate = 0.0769609
Maximum accepted packet rate = 0.1105 (at node 36)
Minimum injected flit rate = 0.041 (at node 57)
Average injected flit rate = 0.167289
Maximum injected flit rate = 0.227 (at node 29)
Minimum accepted flit rate = 0.017 (at node 7)
Average accepted flit rate = 0.154023
Maximum accepted flit rate = 0.2215 (at node 36)
Average injected packet length = 1.99916
Average accepted packet length = 2.00132
Total in-flight flits = 1751 (0 measured)
Class 1:
Minimum packet latency = 8
Average packet latency = 96.626
Maximum packet latency = 1350
Minimum network latency = 8
Average network latency = 80.3481
Maximum network latency = 1349
Slowest packet = 2962
Minimum flit latency = 7
Average flit latency = 78.9757
Maximum flit latency = 1348
Slowest flit = 5924
Minimum fragmentation = 0
Average fragmentation = 0
Maximum fragmentation = 0
Minimum injected packet rate = 0.006 (at node 7)
Average injected packet rate = 0.0247344
Maximum injected packet rate = 0.0345 (at node 24)
Minimum accepted packet rate = 0.003 (at node 56)
Average accepted packet rate = 0.0235859
Maximum accepted packet rate = 0.034 (at node 3)
Minimum injected flit rate = 0.012 (at node 7)
Average injected flit rate = 0.0494531
Maximum injected flit rate = 0.069 (at node 24)
Minimum accepted flit rate = 0.006 (at node 56)
Average accepted flit rate = 0.0471953
Maximum accepted flit rate = 0.068 (at node 3)
Average injected packet length = 1.99937
Average accepted packet length = 2.00099
Total in-flight flits = 311 (0 measured)
latency change    = 0.344292
throughput change = 0.0134415
latency change    = 0.343619
throughput change = 0.0690283
0
Class 0:
Minimum packet latency = 8
Average packet latency = 248.667
Maximum packet latency = 2709
Minimum network latency = 8
Average network latency = 159.615
Maximum network latency = 2709
Slowest packet = 2043
Minimum flit latency = 5
Average flit latency = 157.386
Maximum flit latency = 2708
Slowest flit = 4086
Minimum fragmentation = 0
Average fragmentation = 1.75938
Maximum fragmentation = 71
Minimum injected packet rate = 0 (at node 57)
Average injected packet rate = 0.0785
Maximum injected packet rate = 0.121 (at node 27)
Minimum accepted packet rate = 0.003 (at node 56)
Average accepted packet rate = 0.07825
Maximum accepted packet rate = 0.122 (at node 27)
Minimum injected flit rate = 0 (at node 57)
Average injected flit rate = 0.156984
Maximum injected flit rate = 0.242 (at node 27)
Minimum accepted flit rate = 0.006 (at node 56)
Average accepted flit rate = 0.1565
Maximum accepted flit rate = 0.244 (at node 27)
Average injected packet length = 1.9998
Average accepted packet length = 2
Total in-flight flits = 1779 (0 measured)
Class 1:
Minimum packet latency = 8
Average packet latency = 155.62
Maximum packet latency = 2198
Minimum network latency = 8
Average network latency = 108.044
Maximum network latency = 1970
Slowest packet = 3765
Minimum flit latency = 7
Average flit latency = 106.535
Maximum flit latency = 1969
Slowest flit = 7530
Minimum fragmentation = 0
Average fragmentation = 0
Maximum fragmentation = 0
Minimum injected packet rate = 0.014 (at node 61)
Average injected packet rate = 0.0240469
Maximum injected packet rate = 0.055 (at node 7)
Minimum accepted packet rate = 0.016 (at node 6)
Average accepted packet rate = 0.0241563
Maximum accepted packet rate = 0.055 (at node 56)
Minimum injected flit rate = 0.028 (at node 61)
Average injected flit rate = 0.0480469
Maximum injected flit rate = 0.11 (at node 7)
Minimum accepted flit rate = 0.032 (at node 6)
Average accepted flit rate = 0.0482656
Maximum accepted flit rate = 0.11 (at node 56)
Average injected packet length = 1.99805
Average accepted packet length = 1.99806
Total in-flight flits = 296 (0 measured)
latency change    = 0.485528
throughput change = 0.0158247
latency change    = 0.379089
throughput change = 0.0221755
Average latency for class 0 exceeded 500 cycles. Aborting simulation.
Too many sample periods needed to converge
Simulation unstable, ending ...
Total run time 2.72173
