BEGIN Configuration File: ./examples/project_inputs/config-iqevc_tp-uniform_c1ir-0.05_c0ir-0.17_prio-select
//
// EVC Router Config File -         
//
// Jason Deng, Mike Wang        
//        

//
// Flow control
//

num_vcs     = 5;
vc_buf_size = 6;

wait_for_tail_credit = 0;

vc_allocator = select;
sw_allocator = select;
alloc_iters  = 2;

credit_delay   = 2;
routing_delay  = 1;
vc_alloc_delay = 1;
sw_alloc_delay = 1;
st_final_delay = 1;

input_speedup     = 1;
output_speedup    = 1;
internal_speedup  = 1.0;

//
// Traffic
//

sim_type = latency;

warmup_periods = 3;
sample_period  = 1000;
sim_count = 1;

//
//topoogy
//

topology = mesh;
k  = 8;
n  = 2;

//
// Routing
//

router = iqevc;
routing_function = dor;

packet_size = 2;
use_read_write = 0;

traffic  = uniform;
injection_rate = {0.17,0.05};
injection_rate_uses_flits = 1;

classes = 2;
class_priority = {0,1};
priority = class;

noq = 0;
hold_switch_for_packet = 0;
vc_prioritize_empty = 0;

//
// express virtual channel settings
//

evc = 1;
num_evcs = 1;
evc_prioritized_class = 1;
selective_vc_request = 1;
hold_switch_for_evc_packet = 1;
evc_next_route = 0;

END Configuration File: ./examples/project_inputs/config-iqevc_tp-uniform_c1ir-0.05_c0ir-0.17_prio-select
0
Class 0:
Minimum packet latency = 8
Average packet latency = 36.9894
Maximum packet latency = 97
Minimum network latency = 8
Average network latency = 36.7819
Maximum network latency = 97
Slowest packet = 4404
Minimum flit latency = 6
Average flit latency = 35.3247
Maximum flit latency = 96
Slowest flit = 8809
Minimum fragmentation = 0
Average fragmentation = 0.84807
Maximum fragmentation = 18
Minimum injected packet rate = 0.066 (at node 45)
Average injected packet rate = 0.0851563
Maximum injected packet rate = 0.109 (at node 61)
Minimum accepted packet rate = 0.065 (at node 52)
Average accepted packet rate = 0.0821719
Maximum accepted packet rate = 0.102 (at node 34)
Minimum injected flit rate = 0.132 (at node 45)
Average injected flit rate = 0.170234
Maximum injected flit rate = 0.218 (at node 61)
Minimum accepted flit rate = 0.13 (at node 52)
Average accepted flit rate = 0.164531
Maximum accepted flit rate = 0.204 (at node 34)
Average injected packet length = 1.99908
Average accepted packet length = 2.00228
Total in-flight flits = 370 (0 measured)
Class 1:
Minimum packet latency = 8
Average packet latency = 34.8637
Maximum packet latency = 78
Minimum network latency = 8
Average network latency = 34.8405
Maximum network latency = 78
Slowest packet = 796
Minimum flit latency = 7
Average flit latency = 33.8405
Maximum flit latency = 77
Slowest flit = 1592
Minimum fragmentation = 0
Average fragmentation = 0
Maximum fragmentation = 0
Minimum injected packet rate = 0.014 (at node 17)
Average injected packet rate = 0.0250781
Maximum injected packet rate = 0.038 (at node 30)
Minimum accepted packet rate = 0.013 (at node 17)
Average accepted packet rate = 0.0242969
Maximum accepted packet rate = 0.037 (at node 45)
Minimum injected flit rate = 0.028 (at node 17)
Average injected flit rate = 0.0501406
Maximum injected flit rate = 0.076 (at node 30)
Minimum accepted flit rate = 0.026 (at node 17)
Average accepted flit rate = 0.0485937
Maximum accepted flit rate = 0.074 (at node 45)
Average injected packet length = 1.99938
Average accepted packet length = 2
Total in-flight flits = 100 (0 measured)
latency change    = 1
throughput change = 1
latency change    = 1
throughput change = 1
0
Class 0:
Minimum packet latency = 8
Average packet latency = 36.9079
Maximum packet latency = 97
Minimum network latency = 8
Average network latency = 36.7062
Maximum network latency = 97
Slowest packet = 4404
Minimum flit latency = 6
Average flit latency = 35.2475
Maximum flit latency = 96
Slowest flit = 8809
Minimum fragmentation = 0
Average fragmentation = 0.866203
Maximum fragmentation = 18
Minimum injected packet rate = 0.0705 (at node 52)
Average injected packet rate = 0.0848047
Maximum injected packet rate = 0.1035 (at node 28)
Minimum accepted packet rate = 0.069 (at node 36)
Average accepted packet rate = 0.0831484
Maximum accepted packet rate = 0.097 (at node 14)
Minimum injected flit rate = 0.141 (at node 52)
Average injected flit rate = 0.16957
Maximum injected flit rate = 0.207 (at node 28)
Minimum accepted flit rate = 0.138 (at node 36)
Average accepted flit rate = 0.166352
Maximum accepted flit rate = 0.194 (at node 14)
Average injected packet length = 1.99954
Average accepted packet length = 2.00066
Total in-flight flits = 419 (0 measured)
Class 1:
Minimum packet latency = 8
Average packet latency = 35.2372
Maximum packet latency = 82
Minimum network latency = 8
Average network latency = 35.2152
Maximum network latency = 82
Slowest packet = 8820
Minimum flit latency = 7
Average flit latency = 34.2129
Maximum flit latency = 81
Slowest flit = 17640
Minimum fragmentation = 0
Average fragmentation = 0
Maximum fragmentation = 0
Minimum injected packet rate = 0.0155 (at node 62)
Average injected packet rate = 0.0246016
Maximum injected packet rate = 0.031 (at node 39)
Minimum accepted packet rate = 0.0185 (at node 60)
Average accepted packet rate = 0.0242109
Maximum accepted packet rate = 0.0325 (at node 6)
Minimum injected flit rate = 0.031 (at node 62)
Average injected flit rate = 0.0491953
Maximum injected flit rate = 0.062 (at node 39)
Minimum accepted flit rate = 0.037 (at node 60)
Average accepted flit rate = 0.0484297
Maximum accepted flit rate = 0.065 (at node 6)
Average injected packet length = 1.99968
Average accepted packet length = 2.00032
Total in-flight flits = 99 (0 measured)
latency change    = 0.00220633
throughput change = 0.0109426
latency change    = 0.0105998
throughput change = 0.00338764
0
Class 0:
Minimum packet latency = 8
Average packet latency = 36.9247
Maximum packet latency = 85
Minimum network latency = 8
Average network latency = 36.7306
Maximum network latency = 84
Slowest packet = 15157
Minimum flit latency = 7
Average flit latency = 35.2685
Maximum flit latency = 83
Slowest flit = 30315
Minimum fragmentation = 0
Average fragmentation = 0.863096
Maximum fragmentation = 14
Minimum injected packet rate = 0.067 (at node 31)
Average injected packet rate = 0.0852969
Maximum injected packet rate = 0.109 (at node 24)
Minimum accepted packet rate = 0.059 (at node 34)
Average accepted packet rate = 0.0854844
Maximum accepted packet rate = 0.112 (at node 29)
Minimum injected flit rate = 0.134 (at node 31)
Average injected flit rate = 0.170594
Maximum injected flit rate = 0.218 (at node 24)
Minimum accepted flit rate = 0.118 (at node 34)
Average accepted flit rate = 0.170953
Maximum accepted flit rate = 0.224 (at node 29)
Average injected packet length = 2
Average accepted packet length = 1.99982
Total in-flight flits = 394 (0 measured)
Class 1:
Minimum packet latency = 8
Average packet latency = 35.3681
Maximum packet latency = 83
Minimum network latency = 8
Average network latency = 35.3427
Maximum network latency = 83
Slowest packet = 19130
Minimum flit latency = 7
Average flit latency = 34.3465
Maximum flit latency = 82
Slowest flit = 38260
Minimum fragmentation = 0
Average fragmentation = 0
Maximum fragmentation = 0
Minimum injected packet rate = 0.016 (at node 50)
Average injected packet rate = 0.0245625
Maximum injected packet rate = 0.038 (at node 24)
Minimum accepted packet rate = 0.014 (at node 32)
Average accepted packet rate = 0.0245781
Maximum accepted packet rate = 0.036 (at node 6)
Minimum injected flit rate = 0.032 (at node 50)
Average injected flit rate = 0.0491406
Maximum injected flit rate = 0.076 (at node 24)
Minimum accepted flit rate = 0.028 (at node 32)
Average accepted flit rate = 0.0491562
Maximum accepted flit rate = 0.072 (at node 6)
Average injected packet length = 2.00064
Average accepted packet length = 2
Total in-flight flits = 97 (0 measured)
latency change    = 0.000454253
throughput change = 0.0269171
latency change    = 0.00370145
throughput change = 0.0147807
Warmed up ...Time used is 3000 cycles
1
Class 0:
Minimum packet latency = 8
Average packet latency = 36.6588
Maximum packet latency = 94
Minimum network latency = 8
Average network latency = 36.422
Maximum network latency = 93
Slowest packet = 23237
Minimum flit latency = 7
Average flit latency = 35.1174
Maximum flit latency = 92
Slowest flit = 46475
Minimum fragmentation = 0
Average fragmentation = 0.835453
Maximum fragmentation = 18
Minimum injected packet rate = 0.064 (at node 10)
Average injected packet rate = 0.0830313
Maximum injected packet rate = 0.109 (at node 42)
Minimum accepted packet rate = 0.064 (at node 3)
Average accepted packet rate = 0.0829844
Maximum accepted packet rate = 0.105 (at node 19)
Minimum injected flit rate = 0.128 (at node 10)
Average injected flit rate = 0.166047
Maximum injected flit rate = 0.218 (at node 42)
Minimum accepted flit rate = 0.129 (at node 3)
Average accepted flit rate = 0.166
Maximum accepted flit rate = 0.21 (at node 19)
Average injected packet length = 1.99981
Average accepted packet length = 2.00038
Total in-flight flits = 398 (398 measured)
Class 1:
Minimum packet latency = 8
Average packet latency = 35.3796
Maximum packet latency = 82
Minimum network latency = 8
Average network latency = 35.3537
Maximum network latency = 82
Slowest packet = 22674
Minimum flit latency = 7
Average flit latency = 34.4638
Maximum flit latency = 81
Slowest flit = 45348
Minimum fragmentation = 0
Average fragmentation = 0
Maximum fragmentation = 0
Minimum injected packet rate = 0.016 (at node 35)
Average injected packet rate = 0.0258281
Maximum injected packet rate = 0.038 (at node 39)
Minimum accepted packet rate = 0.017 (at node 24)
Average accepted packet rate = 0.0255469
Maximum accepted packet rate = 0.038 (at node 56)
Minimum injected flit rate = 0.032 (at node 35)
Average injected flit rate = 0.0515938
Maximum injected flit rate = 0.076 (at node 39)
Minimum accepted flit rate = 0.034 (at node 24)
Average accepted flit rate = 0.0511406
Maximum accepted flit rate = 0.076 (at node 56)
Average injected packet length = 1.99758
Average accepted packet length = 2.00183
Total in-flight flits = 130 (130 measured)
latency change    = 0.00725389
throughput change = 0.0298381
latency change    = 0.000324616
throughput change = 0.0388023
1
Class 0:
Minimum packet latency = 8
Average packet latency = 36.9814
Maximum packet latency = 105
Minimum network latency = 8
Average network latency = 36.7495
Maximum network latency = 104
Slowest packet = 32553
Minimum flit latency = 7
Average flit latency = 35.3623
Maximum flit latency = 103
Slowest flit = 65107
Minimum fragmentation = 0
Average fragmentation = 0.839334
Maximum fragmentation = 20
Minimum injected packet rate = 0.0715 (at node 9)
Average injected packet rate = 0.0846094
Maximum injected packet rate = 0.099 (at node 6)
Minimum accepted packet rate = 0.0715 (at node 17)
Average accepted packet rate = 0.0846641
Maximum accepted packet rate = 0.101 (at node 10)
Minimum injected flit rate = 0.143 (at node 9)
Average injected flit rate = 0.169227
Maximum injected flit rate = 0.198 (at node 6)
Minimum accepted flit rate = 0.143 (at node 17)
Average accepted flit rate = 0.169383
Maximum accepted flit rate = 0.2015 (at node 10)
Average injected packet length = 2.00009
Average accepted packet length = 2.00065
Total in-flight flits = 375 (375 measured)
Class 1:
Minimum packet latency = 8
Average packet latency = 35.3212
Maximum packet latency = 82
Minimum network latency = 8
Average network latency = 35.2967
Maximum network latency = 82
Slowest packet = 22674
Minimum flit latency = 7
Average flit latency = 34.354
Maximum flit latency = 81
Slowest flit = 45348
Minimum fragmentation = 0
Average fragmentation = 0
Maximum fragmentation = 0
Minimum injected packet rate = 0.0165 (at node 25)
Average injected packet rate = 0.0252813
Maximum injected packet rate = 0.0345 (at node 39)
Minimum accepted packet rate = 0.018 (at node 37)
Average accepted packet rate = 0.0252422
Maximum accepted packet rate = 0.0345 (at node 53)
Minimum injected flit rate = 0.033 (at node 25)
Average injected flit rate = 0.0505469
Maximum injected flit rate = 0.069 (at node 39)
Minimum accepted flit rate = 0.036 (at node 37)
Average accepted flit rate = 0.0505156
Maximum accepted flit rate = 0.069 (at node 53)
Average injected packet length = 1.99938
Average accepted packet length = 2.00124
Total in-flight flits = 103 (103 measured)
latency change    = 0.00872359
throughput change = 0.0199714
latency change    = 0.0016531
throughput change = 0.0123724
1
Class 0:
Minimum packet latency = 8
Average packet latency = 36.916
Maximum packet latency = 105
Minimum network latency = 8
Average network latency = 36.6919
Maximum network latency = 104
Slowest packet = 32553
Minimum flit latency = 7
Average flit latency = 35.2861
Maximum flit latency = 103
Slowest flit = 65107
Minimum fragmentation = 0
Average fragmentation = 0.842398
Maximum fragmentation = 20
Minimum injected packet rate = 0.075 (at node 1)
Average injected packet rate = 0.0853073
Maximum injected packet rate = 0.0973333 (at node 54)
Minimum accepted packet rate = 0.0706667 (at node 28)
Average accepted packet rate = 0.0853125
Maximum accepted packet rate = 0.101667 (at node 9)
Minimum injected flit rate = 0.149667 (at node 1)
Average injected flit rate = 0.170609
Maximum injected flit rate = 0.194667 (at node 54)
Minimum accepted flit rate = 0.141333 (at node 28)
Average accepted flit rate = 0.170635
Maximum accepted flit rate = 0.203667 (at node 9)
Average injected packet length = 1.99994
Average accepted packet length = 2.00012
Total in-flight flits = 390 (390 measured)
Class 1:
Minimum packet latency = 8
Average packet latency = 35.4068
Maximum packet latency = 85
Minimum network latency = 8
Average network latency = 35.3819
Maximum network latency = 85
Slowest packet = 40364
Minimum flit latency = 7
Average flit latency = 34.4197
Maximum flit latency = 84
Slowest flit = 80728
Minimum fragmentation = 0
Average fragmentation = 0
Maximum fragmentation = 0
Minimum injected packet rate = 0.0166667 (at node 25)
Average injected packet rate = 0.0252135
Maximum injected packet rate = 0.031 (at node 22)
Minimum accepted packet rate = 0.0183333 (at node 37)
Average accepted packet rate = 0.0251302
Maximum accepted packet rate = 0.0336667 (at node 53)
Minimum injected flit rate = 0.0333333 (at node 25)
Average injected flit rate = 0.0504219
Maximum injected flit rate = 0.062 (at node 22)
Minimum accepted flit rate = 0.0366667 (at node 37)
Average accepted flit rate = 0.0502604
Maximum accepted flit rate = 0.0673333 (at node 53)
Average injected packet length = 1.99979
Average accepted packet length = 2
Total in-flight flits = 129 (129 measured)
latency change    = 0.001771
throughput change = 0.00734082
latency change    = 0.00241886
throughput change = 0.00507772
Draining all recorded packets ...
Draining remaining packets ...
Time taken is 6145 cycles
====== Traffic class 0 ======
Overall minimum packet latency = 8 (1 samples)
Overall average packet latency = 36.9717 (1 samples)
Overall maximum packet latency = 105 (1 samples)
Overall minimum network latency = 8 (1 samples)
Overall average network latency = 36.7476 (1 samples)
Overall maximum network latency = 104 (1 samples)
Overall minimum flit latency = 7 (1 samples)
Overall average flit latency = 35.3546 (1 samples)
Overall maximum flit latency = 103 (1 samples)
Overall minimum fragmentation = 0 (1 samples)
Overall average fragmentation = 0.841575 (1 samples)
Overall maximum fragmentation = 20 (1 samples)
Overall minimum injected packet rate = 0.075 (1 samples)
Overall average injected packet rate = 0.0853073 (1 samples)
Overall maximum injected packet rate = 0.0973333 (1 samples)
Overall minimum accepted packet rate = 0.0706667 (1 samples)
Overall average accepted packet rate = 0.0853125 (1 samples)
Overall maximum accepted packet rate = 0.101667 (1 samples)
Overall minimum injected flit rate = 0.149667 (1 samples)
Overall average injected flit rate = 0.170609 (1 samples)
Overall maximum injected flit rate = 0.194667 (1 samples)
Overall minimum accepted flit rate = 0.141333 (1 samples)
Overall average accepted flit rate = 0.170635 (1 samples)
Overall maximum accepted flit rate = 0.203667 (1 samples)
Overall average injected packet size = 1.99994 (1 samples)
Overall average accepted packet size = 2.00012 (1 samples)
Overall average hops = 6.26032 (1 samples)
====== Traffic class 1 ======
Overall minimum packet latency = 8 (1 samples)
Overall average packet latency = 35.4892 (1 samples)
Overall maximum packet latency = 85 (1 samples)
Overall minimum network latency = 8 (1 samples)
Overall average network latency = 35.4646 (1 samples)
Overall maximum network latency = 85 (1 samples)
Overall minimum flit latency = 7 (1 samples)
Overall average flit latency = 34.5242 (1 samples)
Overall maximum flit latency = 84 (1 samples)
Overall minimum fragmentation = 0 (1 samples)
Overall average fragmentation = 0 (1 samples)
Overall maximum fragmentation = 0 (1 samples)
Overall minimum injected packet rate = 0.0166667 (1 samples)
Overall average injected packet rate = 0.0252135 (1 samples)
Overall maximum injected packet rate = 0.031 (1 samples)
Overall minimum accepted packet rate = 0.0183333 (1 samples)
Overall average accepted packet rate = 0.0251302 (1 samples)
Overall maximum accepted packet rate = 0.0336667 (1 samples)
Overall minimum injected flit rate = 0.0333333 (1 samples)
Overall average injected flit rate = 0.0504219 (1 samples)
Overall maximum injected flit rate = 0.062 (1 samples)
Overall minimum accepted flit rate = 0.0366667 (1 samples)
Overall average accepted flit rate = 0.0502604 (1 samples)
Overall maximum accepted flit rate = 0.0673333 (1 samples)
Overall average injected packet size = 1.99979 (1 samples)
Overall average accepted packet size = 2 (1 samples)
Overall average hops = 6.2735 (1 samples)
Total run time 5.53583
