BEGIN Configuration File: ./examples/project_inputs/config-iqevc_tp-uniform_c1ir-0.05_c0ir-0.35_prio-select
//
// EVC Router Config File -         
//
// Jason Deng, Mike Wang        
//        

//
// Flow control
//

num_vcs     = 5;
vc_buf_size = 6;

wait_for_tail_credit = 0;

vc_allocator = select;
sw_allocator = select;
alloc_iters  = 2;

credit_delay   = 2;
routing_delay  = 1;
vc_alloc_delay = 1;
sw_alloc_delay = 1;
st_final_delay = 1;

input_speedup     = 1;
output_speedup    = 1;
internal_speedup  = 1.0;

//
// Traffic
//

sim_type = latency;

warmup_periods = 3;
sample_period  = 1000;
sim_count = 1;

//
//topoogy
//

topology = mesh;
k  = 8;
n  = 2;

//
// Routing
//

router = iqevc;
routing_function = dor;

packet_size = 2;
use_read_write = 0;

traffic  = uniform;
injection_rate = {0.35,0.05};
injection_rate_uses_flits = 1;

classes = 2;
class_priority = {0,1};
priority = class;

noq = 0;
hold_switch_for_packet = 0;
vc_prioritize_empty = 0;

//
// express virtual channel settings
//

evc = 1;
num_evcs = 1;
evc_prioritized_class = 1;
selective_vc_request = 1;
hold_switch_for_evc_packet = 1;
evc_next_route = 0;

END Configuration File: ./examples/project_inputs/config-iqevc_tp-uniform_c1ir-0.05_c0ir-0.35_prio-select
0
Class 0:
Minimum packet latency = 8
Average packet latency = 50.9517
Maximum packet latency = 216
Minimum network latency = 8
Average network latency = 50.5247
Maximum network latency = 216
Slowest packet = 8622
Minimum flit latency = 7
Average flit latency = 48.5575
Maximum flit latency = 215
Slowest flit = 17245
Minimum fragmentation = 0
Average fragmentation = 1.8901
Maximum fragmentation = 26
Minimum injected packet rate = 0.141 (at node 19)
Average injected packet rate = 0.172172
Maximum injected packet rate = 0.194 (at node 28)
Minimum accepted packet rate = 0.134 (at node 10)
Average accepted packet rate = 0.161656
Maximum accepted packet rate = 0.187 (at node 59)
Minimum injected flit rate = 0.282 (at node 19)
Average injected flit rate = 0.344109
Maximum injected flit rate = 0.388 (at node 28)
Minimum accepted flit rate = 0.269 (at node 10)
Average accepted flit rate = 0.323797
Maximum accepted flit rate = 0.374 (at node 59)
Average injected packet length = 1.99864
Average accepted packet length = 2.003
Total in-flight flits = 1315 (0 measured)
Class 1:
Minimum packet latency = 8
Average packet latency = 34.9632
Maximum packet latency = 86
Minimum network latency = 8
Average network latency = 34.937
Maximum network latency = 86
Slowest packet = 2292
Minimum flit latency = 7
Average flit latency = 33.941
Maximum flit latency = 85
Slowest flit = 4584
Minimum fragmentation = 0
Average fragmentation = 0
Maximum fragmentation = 0
Minimum injected packet rate = 0.015 (at node 58)
Average injected packet rate = 0.0259687
Maximum injected packet rate = 0.042 (at node 34)
Minimum accepted packet rate = 0.014 (at node 4)
Average accepted packet rate = 0.0250313
Maximum accepted packet rate = 0.037 (at node 44)
Minimum injected flit rate = 0.03 (at node 58)
Average injected flit rate = 0.0519219
Maximum injected flit rate = 0.084 (at node 34)
Minimum accepted flit rate = 0.028 (at node 4)
Average accepted flit rate = 0.0500937
Maximum accepted flit rate = 0.074 (at node 44)
Average injected packet length = 1.9994
Average accepted packet length = 2.00125
Total in-flight flits = 118 (0 measured)
latency change    = 1
throughput change = 1
latency change    = 1
throughput change = 1
0
Class 0:
Minimum packet latency = 8
Average packet latency = 54.6779
Maximum packet latency = 252
Minimum network latency = 8
Average network latency = 54.2482
Maximum network latency = 252
Slowest packet = 22227
Minimum flit latency = 5
Average flit latency = 52.2636
Maximum flit latency = 251
Slowest flit = 44455
Minimum fragmentation = 0
Average fragmentation = 1.9238
Maximum fragmentation = 32
Minimum injected packet rate = 0.1535 (at node 45)
Average injected packet rate = 0.174
Maximum injected packet rate = 0.19 (at node 14)
Minimum accepted packet rate = 0.1515 (at node 52)
Average accepted packet rate = 0.168461
Maximum accepted packet rate = 0.1875 (at node 51)
Minimum injected flit rate = 0.307 (at node 45)
Average injected flit rate = 0.34782
Maximum injected flit rate = 0.38 (at node 14)
Minimum accepted flit rate = 0.303 (at node 52)
Average accepted flit rate = 0.337242
Maximum accepted flit rate = 0.3755 (at node 51)
Average injected packet length = 1.99897
Average accepted packet length = 2.0019
Total in-flight flits = 1377 (0 measured)
Class 1:
Minimum packet latency = 8
Average packet latency = 35.6252
Maximum packet latency = 86
Minimum network latency = 8
Average network latency = 35.5951
Maximum network latency = 86
Slowest packet = 2292
Minimum flit latency = 7
Average flit latency = 34.595
Maximum flit latency = 85
Slowest flit = 4584
Minimum fragmentation = 0
Average fragmentation = 0
Maximum fragmentation = 0
Minimum injected packet rate = 0.017 (at node 49)
Average injected packet rate = 0.0253594
Maximum injected packet rate = 0.0345 (at node 29)
Minimum accepted packet rate = 0.015 (at node 43)
Average accepted packet rate = 0.0249688
Maximum accepted packet rate = 0.034 (at node 44)
Minimum injected flit rate = 0.034 (at node 49)
Average injected flit rate = 0.0507187
Maximum injected flit rate = 0.069 (at node 29)
Minimum accepted flit rate = 0.03 (at node 43)
Average accepted flit rate = 0.0499375
Maximum accepted flit rate = 0.068 (at node 44)
Average injected packet length = 2
Average accepted packet length = 2
Total in-flight flits = 100 (0 measured)
latency change    = 0.0681491
throughput change = 0.0398684
latency change    = 0.018582
throughput change = 0.00312891
0
Class 0:
Minimum packet latency = 8
Average packet latency = 59.9248
Maximum packet latency = 251
Minimum network latency = 8
Average network latency = 59.4826
Maximum network latency = 251
Slowest packet = 34986
Minimum flit latency = 5
Average flit latency = 57.4716
Maximum flit latency = 250
Slowest flit = 69972
Minimum fragmentation = 0
Average fragmentation = 1.96463
Maximum fragmentation = 33
Minimum injected packet rate = 0.153 (at node 17)
Average injected packet rate = 0.173734
Maximum injected packet rate = 0.208 (at node 37)
Minimum accepted packet rate = 0.147 (at node 17)
Average accepted packet rate = 0.174063
Maximum accepted packet rate = 0.199 (at node 9)
Minimum injected flit rate = 0.306 (at node 17)
Average injected flit rate = 0.347672
Maximum injected flit rate = 0.417 (at node 37)
Minimum accepted flit rate = 0.295 (at node 17)
Average accepted flit rate = 0.348297
Maximum accepted flit rate = 0.398 (at node 9)
Average injected packet length = 2.00117
Average accepted packet length = 2.00099
Total in-flight flits = 1324 (0 measured)
Class 1:
Minimum packet latency = 8
Average packet latency = 36.8307
Maximum packet latency = 80
Minimum network latency = 8
Average network latency = 36.8014
Maximum network latency = 80
Slowest packet = 33073
Minimum flit latency = 7
Average flit latency = 35.8014
Maximum flit latency = 79
Slowest flit = 66146
Minimum fragmentation = 0
Average fragmentation = 0
Maximum fragmentation = 0
Minimum injected packet rate = 0.012 (at node 20)
Average injected packet rate = 0.0245625
Maximum injected packet rate = 0.036 (at node 22)
Minimum accepted packet rate = 0.013 (at node 23)
Average accepted packet rate = 0.0245469
Maximum accepted packet rate = 0.037 (at node 2)
Minimum injected flit rate = 0.024 (at node 20)
Average injected flit rate = 0.0491094
Maximum injected flit rate = 0.072 (at node 22)
Minimum accepted flit rate = 0.026 (at node 23)
Average accepted flit rate = 0.0490937
Maximum accepted flit rate = 0.074 (at node 2)
Average injected packet length = 1.99936
Average accepted packet length = 2
Total in-flight flits = 102 (0 measured)
latency change    = 0.0875574
throughput change = 0.0317393
latency change    = 0.0327315
throughput change = 0.0171865
Warmed up ...Time used is 3000 cycles
1
Class 0:
Minimum packet latency = 8
Average packet latency = 57.3611
Maximum packet latency = 288
Minimum network latency = 8
Average network latency = 56.9241
Maximum network latency = 272
Slowest packet = 40665
Minimum flit latency = 5
Average flit latency = 56.9245
Maximum flit latency = 307
Slowest flit = 73183
Minimum fragmentation = 0
Average fragmentation = 1.96128
Maximum fragmentation = 38
Minimum injected packet rate = 0.133 (at node 21)
Average injected packet rate = 0.172641
Maximum injected packet rate = 0.196 (at node 25)
Minimum accepted packet rate = 0.153 (at node 6)
Average accepted packet rate = 0.174594
Maximum accepted packet rate = 0.207 (at node 19)
Minimum injected flit rate = 0.266 (at node 21)
Average injected flit rate = 0.345219
Maximum injected flit rate = 0.392 (at node 25)
Minimum accepted flit rate = 0.306 (at node 6)
Average accepted flit rate = 0.348891
Maximum accepted flit rate = 0.412 (at node 19)
Average injected packet length = 1.99964
Average accepted packet length = 1.9983
Total in-flight flits = 1095 (1095 measured)
Class 1:
Minimum packet latency = 8
Average packet latency = 36.3356
Maximum packet latency = 128
Minimum network latency = 8
Average network latency = 36.3013
Maximum network latency = 127
Slowest packet = 41041
Minimum flit latency = 7
Average flit latency = 35.4619
Maximum flit latency = 126
Slowest flit = 82082
Minimum fragmentation = 0
Average fragmentation = 0
Maximum fragmentation = 0
Minimum injected packet rate = 0.012 (at node 1)
Average injected packet rate = 0.0267187
Maximum injected packet rate = 0.041 (at node 49)
Minimum accepted packet rate = 0.016 (at node 43)
Average accepted packet rate = 0.0263594
Maximum accepted packet rate = 0.04 (at node 22)
Minimum injected flit rate = 0.024 (at node 1)
Average injected flit rate = 0.0534219
Maximum injected flit rate = 0.082 (at node 49)
Minimum accepted flit rate = 0.032 (at node 43)
Average accepted flit rate = 0.0527344
Maximum accepted flit rate = 0.08 (at node 22)
Average injected packet length = 1.99942
Average accepted packet length = 2.00059
Total in-flight flits = 147 (147 measured)
latency change    = 0.0446945
throughput change = 0.00170182
latency change    = 0.0136259
throughput change = 0.069037
1
Class 0:
Minimum packet latency = 8
Average packet latency = 57.4381
Maximum packet latency = 288
Minimum network latency = 8
Average network latency = 57.0106
Maximum network latency = 272
Slowest packet = 40665
Minimum flit latency = 5
Average flit latency = 56.019
Maximum flit latency = 307
Slowest flit = 73183
Minimum fragmentation = 0
Average fragmentation = 1.94075
Maximum fragmentation = 45
Minimum injected packet rate = 0.147 (at node 21)
Average injected packet rate = 0.174992
Maximum injected packet rate = 0.198 (at node 60)
Minimum accepted packet rate = 0.156 (at node 6)
Average accepted packet rate = 0.175344
Maximum accepted packet rate = 0.201 (at node 58)
Minimum injected flit rate = 0.294 (at node 21)
Average injected flit rate = 0.349984
Maximum injected flit rate = 0.396 (at node 60)
Minimum accepted flit rate = 0.313 (at node 6)
Average accepted flit rate = 0.350625
Maximum accepted flit rate = 0.4025 (at node 58)
Average injected packet length = 2
Average accepted packet length = 1.99964
Total in-flight flits = 1246 (1246 measured)
Class 1:
Minimum packet latency = 8
Average packet latency = 36.273
Maximum packet latency = 128
Minimum network latency = 8
Average network latency = 36.2445
Maximum network latency = 127
Slowest packet = 41041
Minimum flit latency = 7
Average flit latency = 35.3351
Maximum flit latency = 126
Slowest flit = 82082
Minimum fragmentation = 0
Average fragmentation = 0
Maximum fragmentation = 0
Minimum injected packet rate = 0.0185 (at node 1)
Average injected packet rate = 0.0255859
Maximum injected packet rate = 0.0325 (at node 7)
Minimum accepted packet rate = 0.018 (at node 59)
Average accepted packet rate = 0.0256094
Maximum accepted packet rate = 0.0345 (at node 33)
Minimum injected flit rate = 0.037 (at node 1)
Average injected flit rate = 0.0511641
Maximum injected flit rate = 0.065 (at node 7)
Minimum accepted flit rate = 0.036 (at node 59)
Average accepted flit rate = 0.05125
Maximum accepted flit rate = 0.069 (at node 33)
Average injected packet length = 1.99969
Average accepted packet length = 2.00122
Total in-flight flits = 92 (92 measured)
latency change    = 0.00134115
throughput change = 0.00494652
latency change    = 0.00172485
throughput change = 0.0289634
1
Class 0:
Minimum packet latency = 8
Average packet latency = 57.0679
Maximum packet latency = 288
Minimum network latency = 8
Average network latency = 56.6429
Maximum network latency = 272
Slowest packet = 40665
Minimum flit latency = 5
Average flit latency = 55.3207
Maximum flit latency = 307
Slowest flit = 73183
Minimum fragmentation = 0
Average fragmentation = 1.94949
Maximum fragmentation = 45
Minimum injected packet rate = 0.150333 (at node 21)
Average injected packet rate = 0.174583
Maximum injected packet rate = 0.190333 (at node 60)
Minimum accepted packet rate = 0.158667 (at node 42)
Average accepted packet rate = 0.174641
Maximum accepted packet rate = 0.193 (at node 15)
Minimum injected flit rate = 0.300667 (at node 21)
Average injected flit rate = 0.349167
Maximum injected flit rate = 0.380333 (at node 60)
Minimum accepted flit rate = 0.317 (at node 42)
Average accepted flit rate = 0.349135
Maximum accepted flit rate = 0.385667 (at node 15)
Average injected packet length = 2
Average accepted packet length = 1.99916
Total in-flight flits = 1330 (1330 measured)
Class 1:
Minimum packet latency = 8
Average packet latency = 35.9902
Maximum packet latency = 128
Minimum network latency = 8
Average network latency = 35.9626
Maximum network latency = 127
Slowest packet = 41041
Minimum flit latency = 7
Average flit latency = 35.0161
Maximum flit latency = 126
Slowest flit = 82082
Minimum fragmentation = 0
Average fragmentation = 0
Maximum fragmentation = 0
Minimum injected packet rate = 0.02 (at node 37)
Average injected packet rate = 0.0259427
Maximum injected packet rate = 0.0326667 (at node 7)
Minimum accepted packet rate = 0.0196667 (at node 12)
Average accepted packet rate = 0.025875
Maximum accepted packet rate = 0.032 (at node 5)
Minimum injected flit rate = 0.04 (at node 37)
Average injected flit rate = 0.0518854
Maximum injected flit rate = 0.0653333 (at node 7)
Minimum accepted flit rate = 0.0393333 (at node 12)
Average accepted flit rate = 0.051776
Maximum accepted flit rate = 0.064 (at node 5)
Average injected packet length = 2
Average accepted packet length = 2.00101
Total in-flight flits = 123 (123 measured)
latency change    = 0.00648679
throughput change = 0.00426649
latency change    = 0.00785688
throughput change = 0.0101599
1
Class 0:
Minimum packet latency = 8
Average packet latency = 57.6638
Maximum packet latency = 288
Minimum network latency = 8
Average network latency = 57.2366
Maximum network latency = 272
Slowest packet = 40665
Minimum flit latency = 5
Average flit latency = 55.7385
Maximum flit latency = 307
Slowest flit = 73183
Minimum fragmentation = 0
Average fragmentation = 1.94695
Maximum fragmentation = 45
Minimum injected packet rate = 0.15625 (at node 21)
Average injected packet rate = 0.174543
Maximum injected packet rate = 0.1885 (at node 13)
Minimum accepted packet rate = 0.16025 (at node 32)
Average accepted packet rate = 0.17448
Maximum accepted packet rate = 0.192 (at node 15)
Minimum injected flit rate = 0.3125 (at node 21)
Average injected flit rate = 0.349059
Maximum injected flit rate = 0.37725 (at node 13)
Minimum accepted flit rate = 0.32 (at node 32)
Average accepted flit rate = 0.348863
Maximum accepted flit rate = 0.38375 (at node 15)
Average injected packet length = 1.99984
Average accepted packet length = 1.99944
Total in-flight flits = 1383 (1383 measured)
Class 1:
Minimum packet latency = 8
Average packet latency = 36.0701
Maximum packet latency = 128
Minimum network latency = 8
Average network latency = 36.0434
Maximum network latency = 127
Slowest packet = 41041
Minimum flit latency = 7
Average flit latency = 35.0875
Maximum flit latency = 126
Slowest flit = 82082
Minimum fragmentation = 0
Average fragmentation = 0
Maximum fragmentation = 0
Minimum injected packet rate = 0.0205 (at node 37)
Average injected packet rate = 0.0256875
Maximum injected packet rate = 0.03125 (at node 3)
Minimum accepted packet rate = 0.0205 (at node 12)
Average accepted packet rate = 0.0256797
Maximum accepted packet rate = 0.0325 (at node 5)
Minimum injected flit rate = 0.041 (at node 37)
Average injected flit rate = 0.0513711
Maximum injected flit rate = 0.0625 (at node 3)
Minimum accepted flit rate = 0.041 (at node 12)
Average accepted flit rate = 0.0513672
Maximum accepted flit rate = 0.065 (at node 5)
Average injected packet length = 1.99985
Average accepted packet length = 2.0003
Total in-flight flits = 104 (104 measured)
latency change    = 0.010334
throughput change = 0.000780063
latency change    = 0.00221297
throughput change = 0.00795944
Draining all recorded packets ...
Draining remaining packets ...
Time taken is 7333 cycles
====== Traffic class 0 ======
Overall minimum packet latency = 8 (1 samples)
Overall average packet latency = 58.1252 (1 samples)
Overall maximum packet latency = 288 (1 samples)
Overall minimum network latency = 8 (1 samples)
Overall average network latency = 57.6978 (1 samples)
Overall maximum network latency = 272 (1 samples)
Overall minimum flit latency = 5 (1 samples)
Overall average flit latency = 56.1378 (1 samples)
Overall maximum flit latency = 307 (1 samples)
Overall minimum fragmentation = 0 (1 samples)
Overall average fragmentation = 1.94708 (1 samples)
Overall maximum fragmentation = 45 (1 samples)
Overall minimum injected packet rate = 0.15625 (1 samples)
Overall average injected packet rate = 0.174543 (1 samples)
Overall maximum injected packet rate = 0.1885 (1 samples)
Overall minimum accepted packet rate = 0.16025 (1 samples)
Overall average accepted packet rate = 0.17448 (1 samples)
Overall maximum accepted packet rate = 0.192 (1 samples)
Overall minimum injected flit rate = 0.3125 (1 samples)
Overall average injected flit rate = 0.349059 (1 samples)
Overall maximum injected flit rate = 0.37725 (1 samples)
Overall minimum accepted flit rate = 0.32 (1 samples)
Overall average accepted flit rate = 0.348863 (1 samples)
Overall maximum accepted flit rate = 0.38375 (1 samples)
Overall average injected packet size = 1.99984 (1 samples)
Overall average accepted packet size = 1.99944 (1 samples)
Overall average hops = 6.25214 (1 samples)
====== Traffic class 1 ======
Overall minimum packet latency = 8 (1 samples)
Overall average packet latency = 36.1183 (1 samples)
Overall maximum packet latency = 128 (1 samples)
Overall minimum network latency = 8 (1 samples)
Overall average network latency = 36.0917 (1 samples)
Overall maximum network latency = 127 (1 samples)
Overall minimum flit latency = 7 (1 samples)
Overall average flit latency = 35.1013 (1 samples)
Overall maximum flit latency = 126 (1 samples)
Overall minimum fragmentation = 0 (1 samples)
Overall average fragmentation = 0 (1 samples)
Overall maximum fragmentation = 0 (1 samples)
Overall minimum injected packet rate = 0.0205 (1 samples)
Overall average injected packet rate = 0.0256875 (1 samples)
Overall maximum injected packet rate = 0.03125 (1 samples)
Overall minimum accepted packet rate = 0.0205 (1 samples)
Overall average accepted packet rate = 0.0256797 (1 samples)
Overall maximum accepted packet rate = 0.0325 (1 samples)
Overall minimum injected flit rate = 0.041 (1 samples)
Overall average injected flit rate = 0.0513711 (1 samples)
Overall maximum injected flit rate = 0.0625 (1 samples)
Overall minimum accepted flit rate = 0.041 (1 samples)
Overall average accepted flit rate = 0.0513672 (1 samples)
Overall maximum accepted flit rate = 0.065 (1 samples)
Overall average injected packet size = 1.99985 (1 samples)
Overall average accepted packet size = 2.0003 (1 samples)
Overall average hops = 6.26658 (1 samples)
Total run time 11.6798
