BEGIN Configuration File: ./examples/project_inputs/config-iqevc_tp-transpose_c1ir-0.05_c0ir-0.31_prio-select
//
// EVC Router Config File -         
//
// Jason Deng, Mike Wang        
//        

//
// Flow control
//

num_vcs     = 5;
vc_buf_size = 6;

wait_for_tail_credit = 0;

vc_allocator = select;
sw_allocator = select;
alloc_iters  = 2;

credit_delay   = 2;
routing_delay  = 1;
vc_alloc_delay = 1;
sw_alloc_delay = 1;
st_final_delay = 1;

input_speedup     = 1;
output_speedup    = 1;
internal_speedup  = 1.0;

//
// Traffic
//

sim_type = latency;

warmup_periods = 3;
sample_period  = 1000;
sim_count = 1;

//
//topoogy
//

topology = mesh;
k  = 8;
n  = 2;

//
// Routing
//

router = iqevc;
routing_function = dor;

packet_size = 2;
use_read_write = 0;

traffic  = transpose;
injection_rate = {0.31,0.05};
injection_rate_uses_flits = 1;

classes = 2;
class_priority = {0,1};
priority = class;

noq = 0;
hold_switch_for_packet = 0;
vc_prioritize_empty = 0;

//
// express virtual channel settings
//

evc = 1;
num_evcs = 1;
evc_prioritized_class = 1;
selective_vc_request = 1;
hold_switch_for_evc_packet = 1;
evc_next_route = 0;

END Configuration File: ./examples/project_inputs/config-iqevc_tp-transpose_c1ir-0.05_c0ir-0.31_prio-select
0
Class 0:
Minimum packet latency = 8
Average packet latency = 95.3736
Maximum packet latency = 908
Minimum network latency = 8
Average network latency = 88.3973
Maximum network latency = 908
Slowest packet = 567
Minimum flit latency = 5
Average flit latency = 86.518
Maximum flit latency = 907
Slowest flit = 1134
Minimum fragmentation = 0
Average fragmentation = 1.58998
Maximum fragmentation = 38
Minimum injected packet rate = 0.021 (at node 58)
Average injected packet rate = 0.108125
Maximum injected packet rate = 0.182 (at node 16)
Minimum accepted packet rate = 0.002 (at node 56)
Average accepted packet rate = 0.0922969
Maximum accepted packet rate = 0.18 (at node 63)
Minimum injected flit rate = 0.042 (at node 58)
Average injected flit rate = 0.216109
Maximum injected flit rate = 0.364 (at node 16)
Minimum accepted flit rate = 0.004 (at node 56)
Average accepted flit rate = 0.184797
Maximum accepted flit rate = 0.36 (at node 63)
Average injected packet length = 1.9987
Average accepted packet length = 2.0022
Total in-flight flits = 2075 (0 measured)
Class 1:
Minimum packet latency = 8
Average packet latency = 79.1011
Maximum packet latency = 745
Minimum network latency = 8
Average network latency = 71.6171
Maximum network latency = 745
Slowest packet = 2087
Minimum flit latency = 7
Average flit latency = 70.2145
Maximum flit latency = 744
Slowest flit = 4174
Minimum fragmentation = 0
Average fragmentation = 0
Maximum fragmentation = 0
Minimum injected packet rate = 0.005 (at node 6)
Average injected packet rate = 0.0245156
Maximum injected packet rate = 0.037 (at node 2)
Minimum accepted packet rate = 0.002 (at node 48)
Average accepted packet rate = 0.0210156
Maximum accepted packet rate = 0.034 (at node 53)
Minimum injected flit rate = 0.01 (at node 6)
Average injected flit rate = 0.0489375
Maximum injected flit rate = 0.074 (at node 2)
Minimum accepted flit rate = 0.004 (at node 48)
Average accepted flit rate = 0.0420312
Maximum accepted flit rate = 0.068 (at node 53)
Average injected packet length = 1.99618
Average accepted packet length = 2
Total in-flight flits = 474 (0 measured)
latency change    = 1
throughput change = 1
latency change    = 1
throughput change = 1
0
Class 0:
Minimum packet latency = 8
Average packet latency = 162.594
Maximum packet latency = 1867
Minimum network latency = 8
Average network latency = 117.846
Maximum network latency = 1867
Slowest packet = 1416
Minimum flit latency = 5
Average flit latency = 115.726
Maximum flit latency = 1866
Slowest flit = 2832
Minimum fragmentation = 0
Average fragmentation = 1.72453
Maximum fragmentation = 53
Minimum injected packet rate = 0.0145 (at node 6)
Average injected packet rate = 0.100633
Maximum injected packet rate = 0.1695 (at node 63)
Minimum accepted packet rate = 0.004 (at node 56)
Average accepted packet rate = 0.0923125
Maximum accepted packet rate = 0.1685 (at node 63)
Minimum injected flit rate = 0.029 (at node 6)
Average injected flit rate = 0.201133
Maximum injected flit rate = 0.3385 (at node 63)
Minimum accepted flit rate = 0.008 (at node 56)
Average accepted flit rate = 0.184758
Maximum accepted flit rate = 0.337 (at node 63)
Average injected packet length = 1.99868
Average accepted packet length = 2.00144
Total in-flight flits = 2167 (0 measured)
Class 1:
Minimum packet latency = 8
Average packet latency = 129.189
Maximum packet latency = 1796
Minimum network latency = 8
Average network latency = 99.5931
Maximum network latency = 1744
Slowest packet = 2201
Minimum flit latency = 7
Average flit latency = 97.9769
Maximum flit latency = 1743
Slowest flit = 4402
Minimum fragmentation = 0
Average fragmentation = 0
Maximum fragmentation = 0
Minimum injected packet rate = 0.007 (at node 6)
Average injected packet rate = 0.0249375
Maximum injected packet rate = 0.0345 (at node 55)
Minimum accepted packet rate = 0.001 (at node 48)
Average accepted packet rate = 0.0231953
Maximum accepted packet rate = 0.0345 (at node 62)
Minimum injected flit rate = 0.0135 (at node 6)
Average injected flit rate = 0.0498359
Maximum injected flit rate = 0.069 (at node 55)
Minimum accepted flit rate = 0.002 (at node 48)
Average accepted flit rate = 0.0463984
Maximum accepted flit rate = 0.069 (at node 62)
Average injected packet length = 1.99843
Average accepted packet length = 2.00034
Total in-flight flits = 469 (0 measured)
latency change    = 0.413426
throughput change = 0.000211425
latency change    = 0.387712
throughput change = 0.0941236
0
Class 0:
Minimum packet latency = 8
Average packet latency = 370.306
Maximum packet latency = 2828
Minimum network latency = 8
Average network latency = 165.572
Maximum network latency = 2823
Slowest packet = 1613
Minimum flit latency = 7
Average flit latency = 163.264
Maximum flit latency = 2822
Slowest flit = 2919
Minimum fragmentation = 0
Average fragmentation = 1.82802
Maximum fragmentation = 51
Minimum injected packet rate = 0 (at node 6)
Average injected packet rate = 0.0914375
Maximum injected packet rate = 0.186 (at node 35)
Minimum accepted packet rate = 0.002 (at node 48)
Average accepted packet rate = 0.0915781
Maximum accepted packet rate = 0.187 (at node 28)
Minimum injected flit rate = 0 (at node 6)
Average injected flit rate = 0.182984
Maximum injected flit rate = 0.372 (at node 35)
Minimum accepted flit rate = 0.004 (at node 48)
Average accepted flit rate = 0.183141
Maximum accepted flit rate = 0.374 (at node 28)
Average injected packet length = 2.0012
Average accepted packet length = 1.99983
Total in-flight flits = 2156 (0 measured)
Class 1:
Minimum packet latency = 8
Average packet latency = 201.916
Maximum packet latency = 2426
Minimum network latency = 8
Average network latency = 125.967
Maximum network latency = 2306
Slowest packet = 3132
Minimum flit latency = 7
Average flit latency = 124.199
Maximum flit latency = 2305
Slowest flit = 6264
Minimum fragmentation = 0
Average fragmentation = 0
Maximum fragmentation = 0
Minimum injected packet rate = 0.011 (at node 13)
Average injected packet rate = 0.0247656
Maximum injected packet rate = 0.053 (at node 6)
Minimum accepted packet rate = 0.009 (at node 6)
Average accepted packet rate = 0.0246094
Maximum accepted packet rate = 0.055 (at node 48)
Minimum injected flit rate = 0.022 (at node 13)
Average injected flit rate = 0.0495781
Maximum injected flit rate = 0.107 (at node 6)
Minimum accepted flit rate = 0.018 (at node 6)
Average accepted flit rate = 0.0492031
Maximum accepted flit rate = 0.11 (at node 48)
Average injected packet length = 2.00189
Average accepted packet length = 1.99937
Total in-flight flits = 486 (0 measured)
latency change    = 0.560919
throughput change = 0.0088303
latency change    = 0.360184
throughput change = 0.0570022
Average latency for class 0 exceeded 500 cycles. Aborting simulation.
Too many sample periods needed to converge
Simulation unstable, ending ...
Total run time 3.00225
