BEGIN Configuration File: ./examples/project_inputs/config-iqevc_tp-uniform_c1ir-0.05_c0ir-0.33_prio-select
//
// EVC Router Config File -         
//
// Jason Deng, Mike Wang        
//        

//
// Flow control
//

num_vcs     = 5;
vc_buf_size = 6;

wait_for_tail_credit = 0;

vc_allocator = select;
sw_allocator = select;
alloc_iters  = 2;

credit_delay   = 2;
routing_delay  = 1;
vc_alloc_delay = 1;
sw_alloc_delay = 1;
st_final_delay = 1;

input_speedup     = 1;
output_speedup    = 1;
internal_speedup  = 1.0;

//
// Traffic
//

sim_type = latency;

warmup_periods = 3;
sample_period  = 1000;
sim_count = 1;

//
//topoogy
//

topology = mesh;
k  = 8;
n  = 2;

//
// Routing
//

router = iqevc;
routing_function = dor;

packet_size = 2;
use_read_write = 0;

traffic  = uniform;
injection_rate = {0.33,0.05};
injection_rate_uses_flits = 1;

classes = 2;
class_priority = {0,1};
priority = class;

noq = 0;
hold_switch_for_packet = 0;
vc_prioritize_empty = 0;

//
// express virtual channel settings
//

evc = 1;
num_evcs = 1;
evc_prioritized_class = 1;
selective_vc_request = 1;
hold_switch_for_evc_packet = 1;
evc_next_route = 0;

END Configuration File: ./examples/project_inputs/config-iqevc_tp-uniform_c1ir-0.05_c0ir-0.33_prio-select
0
Class 0:
Minimum packet latency = 8
Average packet latency = 47.8274
Maximum packet latency = 222
Minimum network latency = 8
Average network latency = 47.444
Maximum network latency = 222
Slowest packet = 7907
Minimum flit latency = 7
Average flit latency = 45.5349
Maximum flit latency = 221
Slowest flit = 15815
Minimum fragmentation = 0
Average fragmentation = 1.78393
Maximum fragmentation = 29
Minimum injected packet rate = 0.136 (at node 50)
Average injected packet rate = 0.162469
Maximum injected packet rate = 0.184 (at node 35)
Minimum accepted packet rate = 0.129 (at node 52)
Average accepted packet rate = 0.154172
Maximum accepted packet rate = 0.178 (at node 16)
Minimum injected flit rate = 0.272 (at node 50)
Average injected flit rate = 0.32475
Maximum injected flit rate = 0.368 (at node 35)
Minimum accepted flit rate = 0.258 (at node 52)
Average accepted flit rate = 0.308875
Maximum accepted flit rate = 0.357 (at node 16)
Average injected packet length = 1.99885
Average accepted packet length = 2.00345
Total in-flight flits = 1028 (0 measured)
Class 1:
Minimum packet latency = 8
Average packet latency = 35.56
Maximum packet latency = 80
Minimum network latency = 8
Average network latency = 35.5379
Maximum network latency = 80
Slowest packet = 7387
Minimum flit latency = 7
Average flit latency = 34.5379
Maximum flit latency = 79
Slowest flit = 14774
Minimum fragmentation = 0
Average fragmentation = 0
Maximum fragmentation = 0
Minimum injected packet rate = 0.013 (at node 4)
Average injected packet rate = 0.0256562
Maximum injected packet rate = 0.045 (at node 36)
Minimum accepted packet rate = 0.012 (at node 62)
Average accepted packet rate = 0.02475
Maximum accepted packet rate = 0.035 (at node 9)
Minimum injected flit rate = 0.026 (at node 4)
Average injected flit rate = 0.0513125
Maximum injected flit rate = 0.09 (at node 36)
Minimum accepted flit rate = 0.024 (at node 62)
Average accepted flit rate = 0.0495
Maximum accepted flit rate = 0.07 (at node 9)
Average injected packet length = 2
Average accepted packet length = 2
Total in-flight flits = 116 (0 measured)
latency change    = 1
throughput change = 1
latency change    = 1
throughput change = 1
0
Class 0:
Minimum packet latency = 8
Average packet latency = 48.9987
Maximum packet latency = 222
Minimum network latency = 8
Average network latency = 48.6124
Maximum network latency = 222
Slowest packet = 7907
Minimum flit latency = 5
Average flit latency = 46.6911
Maximum flit latency = 221
Slowest flit = 15815
Minimum fragmentation = 0
Average fragmentation = 1.80771
Maximum fragmentation = 40
Minimum injected packet rate = 0.15 (at node 7)
Average injected packet rate = 0.163812
Maximum injected packet rate = 0.187 (at node 10)
Minimum accepted packet rate = 0.1415 (at node 45)
Average accepted packet rate = 0.159188
Maximum accepted packet rate = 0.1765 (at node 8)
Minimum injected flit rate = 0.3 (at node 7)
Average injected flit rate = 0.327508
Maximum injected flit rate = 0.3735 (at node 10)
Minimum accepted flit rate = 0.283 (at node 45)
Average accepted flit rate = 0.318633
Maximum accepted flit rate = 0.3535 (at node 8)
Average injected packet length = 1.99928
Average accepted packet length = 2.00162
Total in-flight flits = 1151 (0 measured)
Class 1:
Minimum packet latency = 8
Average packet latency = 35.6015
Maximum packet latency = 80
Minimum network latency = 8
Average network latency = 35.5754
Maximum network latency = 80
Slowest packet = 7387
Minimum flit latency = 7
Average flit latency = 34.5754
Maximum flit latency = 79
Slowest flit = 14774
Minimum fragmentation = 0
Average fragmentation = 0
Maximum fragmentation = 0
Minimum injected packet rate = 0.015 (at node 4)
Average injected packet rate = 0.0249297
Maximum injected packet rate = 0.0385 (at node 13)
Minimum accepted packet rate = 0.0185 (at node 27)
Average accepted packet rate = 0.0245078
Maximum accepted packet rate = 0.034 (at node 45)
Minimum injected flit rate = 0.03 (at node 4)
Average injected flit rate = 0.0498359
Maximum injected flit rate = 0.077 (at node 13)
Minimum accepted flit rate = 0.037 (at node 27)
Average accepted flit rate = 0.0490156
Maximum accepted flit rate = 0.068 (at node 45)
Average injected packet length = 1.99906
Average accepted packet length = 2
Total in-flight flits = 108 (0 measured)
latency change    = 0.0239051
throughput change = 0.030624
latency change    = 0.00116724
throughput change = 0.00988205
0
Class 0:
Minimum packet latency = 8
Average packet latency = 49.3741
Maximum packet latency = 251
Minimum network latency = 8
Average network latency = 48.9785
Maximum network latency = 251
Slowest packet = 21138
Minimum flit latency = 7
Average flit latency = 47.0137
Maximum flit latency = 250
Slowest flit = 42277
Minimum fragmentation = 0
Average fragmentation = 1.83706
Maximum fragmentation = 27
Minimum injected packet rate = 0.142 (at node 37)
Average injected packet rate = 0.164
Maximum injected packet rate = 0.188 (at node 20)
Minimum accepted packet rate = 0.139 (at node 17)
Average accepted packet rate = 0.165516
Maximum accepted packet rate = 0.192 (at node 27)
Minimum injected flit rate = 0.284 (at node 37)
Average injected flit rate = 0.328094
Maximum injected flit rate = 0.376 (at node 20)
Minimum accepted flit rate = 0.277 (at node 17)
Average accepted flit rate = 0.330953
Maximum accepted flit rate = 0.384 (at node 27)
Average injected packet length = 2.00057
Average accepted packet length = 1.99953
Total in-flight flits = 964 (0 measured)
Class 1:
Minimum packet latency = 8
Average packet latency = 35.1004
Maximum packet latency = 83
Minimum network latency = 8
Average network latency = 35.0757
Maximum network latency = 83
Slowest packet = 35222
Minimum flit latency = 7
Average flit latency = 34.0757
Maximum flit latency = 82
Slowest flit = 70444
Minimum fragmentation = 0
Average fragmentation = 0
Maximum fragmentation = 0
Minimum injected packet rate = 0.011 (at node 47)
Average injected packet rate = 0.0245781
Maximum injected packet rate = 0.032 (at node 27)
Minimum accepted packet rate = 0.013 (at node 59)
Average accepted packet rate = 0.0245781
Maximum accepted packet rate = 0.033 (at node 6)
Minimum injected flit rate = 0.022 (at node 47)
Average injected flit rate = 0.0491875
Maximum injected flit rate = 0.064 (at node 27)
Minimum accepted flit rate = 0.026 (at node 59)
Average accepted flit rate = 0.0491562
Maximum accepted flit rate = 0.066 (at node 6)
Average injected packet length = 2.00127
Average accepted packet length = 2
Total in-flight flits = 108 (0 measured)
latency change    = 0.00760299
throughput change = 0.0372268
latency change    = 0.0142757
throughput change = 0.00286078
Warmed up ...Time used is 3000 cycles
1
Class 0:
Minimum packet latency = 8
Average packet latency = 48.4929
Maximum packet latency = 160
Minimum network latency = 8
Average network latency = 48.1142
Maximum network latency = 160
Slowest packet = 44105
Minimum flit latency = 5
Average flit latency = 46.6223
Maximum flit latency = 159
Slowest flit = 88210
Minimum fragmentation = 0
Average fragmentation = 1.82904
Maximum fragmentation = 29
Minimum injected packet rate = 0.148 (at node 19)
Average injected packet rate = 0.163734
Maximum injected packet rate = 0.187 (at node 11)
Minimum accepted packet rate = 0.137 (at node 6)
Average accepted packet rate = 0.163578
Maximum accepted packet rate = 0.185 (at node 8)
Minimum injected flit rate = 0.296 (at node 19)
Average injected flit rate = 0.327453
Maximum injected flit rate = 0.374 (at node 11)
Minimum accepted flit rate = 0.274 (at node 6)
Average accepted flit rate = 0.327062
Maximum accepted flit rate = 0.369 (at node 8)
Average injected packet length = 1.9999
Average accepted packet length = 1.99943
Total in-flight flits = 990 (990 measured)
Class 1:
Minimum packet latency = 8
Average packet latency = 35.4054
Maximum packet latency = 78
Minimum network latency = 8
Average network latency = 35.3812
Maximum network latency = 78
Slowest packet = 43679
Minimum flit latency = 7
Average flit latency = 34.4359
Maximum flit latency = 77
Slowest flit = 87358
Minimum fragmentation = 0
Average fragmentation = 0
Maximum fragmentation = 0
Minimum injected packet rate = 0.014 (at node 52)
Average injected packet rate = 0.0250469
Maximum injected packet rate = 0.034 (at node 38)
Minimum accepted packet rate = 0.012 (at node 45)
Average accepted packet rate = 0.0247813
Maximum accepted packet rate = 0.036 (at node 33)
Minimum injected flit rate = 0.028 (at node 52)
Average injected flit rate = 0.0500781
Maximum injected flit rate = 0.068 (at node 38)
Minimum accepted flit rate = 0.024 (at node 45)
Average accepted flit rate = 0.0496094
Maximum accepted flit rate = 0.072 (at node 33)
Average injected packet length = 1.99938
Average accepted packet length = 2.00189
Total in-flight flits = 139 (139 measured)
latency change    = 0.0181714
throughput change = 0.0118957
latency change    = 0.0086119
throughput change = 0.00913386
1
Class 0:
Minimum packet latency = 8
Average packet latency = 49.3136
Maximum packet latency = 160
Minimum network latency = 8
Average network latency = 48.9257
Maximum network latency = 160
Slowest packet = 44105
Minimum flit latency = 5
Average flit latency = 47.1763
Maximum flit latency = 159
Slowest flit = 88210
Minimum fragmentation = 0
Average fragmentation = 1.84463
Maximum fragmentation = 38
Minimum injected packet rate = 0.151 (at node 28)
Average injected packet rate = 0.16457
Maximum injected packet rate = 0.178 (at node 12)
Minimum accepted packet rate = 0.1465 (at node 59)
Average accepted packet rate = 0.16443
Maximum accepted packet rate = 0.189 (at node 57)
Minimum injected flit rate = 0.302 (at node 28)
Average injected flit rate = 0.329125
Maximum injected flit rate = 0.356 (at node 12)
Minimum accepted flit rate = 0.2935 (at node 59)
Average accepted flit rate = 0.328859
Maximum accepted flit rate = 0.377 (at node 57)
Average injected packet length = 1.99991
Average accepted packet length = 2
Total in-flight flits = 998 (998 measured)
Class 1:
Minimum packet latency = 8
Average packet latency = 35.2682
Maximum packet latency = 78
Minimum network latency = 8
Average network latency = 35.2437
Maximum network latency = 78
Slowest packet = 43679
Minimum flit latency = 7
Average flit latency = 34.2705
Maximum flit latency = 77
Slowest flit = 87358
Minimum fragmentation = 0
Average fragmentation = 0
Maximum fragmentation = 0
Minimum injected packet rate = 0.017 (at node 12)
Average injected packet rate = 0.0246641
Maximum injected packet rate = 0.032 (at node 63)
Minimum accepted packet rate = 0.0185 (at node 23)
Average accepted packet rate = 0.0247188
Maximum accepted packet rate = 0.031 (at node 4)
Minimum injected flit rate = 0.034 (at node 12)
Average injected flit rate = 0.0493203
Maximum injected flit rate = 0.064 (at node 63)
Minimum accepted flit rate = 0.037 (at node 23)
Average accepted flit rate = 0.0494453
Maximum accepted flit rate = 0.062 (at node 4)
Average injected packet length = 1.99968
Average accepted packet length = 2.00032
Total in-flight flits = 93 (93 measured)
latency change    = 0.0166411
throughput change = 0.00546396
latency change    = 0.00388978
throughput change = 0.00331806
1
Class 0:
Minimum packet latency = 8
Average packet latency = 49.4848
Maximum packet latency = 192
Minimum network latency = 8
Average network latency = 49.0898
Maximum network latency = 192
Slowest packet = 69900
Minimum flit latency = 5
Average flit latency = 47.2695
Maximum flit latency = 191
Slowest flit = 139801
Minimum fragmentation = 0
Average fragmentation = 1.8608
Maximum fragmentation = 38
Minimum injected packet rate = 0.150333 (at node 28)
Average injected packet rate = 0.164542
Maximum injected packet rate = 0.178333 (at node 21)
Minimum accepted packet rate = 0.151667 (at node 47)
Average accepted packet rate = 0.16426
Maximum accepted packet rate = 0.180333 (at node 57)
Minimum injected flit rate = 0.300667 (at node 28)
Average injected flit rate = 0.329073
Maximum injected flit rate = 0.356667 (at node 21)
Minimum accepted flit rate = 0.303667 (at node 47)
Average accepted flit rate = 0.328547
Maximum accepted flit rate = 0.360333 (at node 57)
Average injected packet length = 1.99994
Average accepted packet length = 2.00016
Total in-flight flits = 1065 (1065 measured)
Class 1:
Minimum packet latency = 8
Average packet latency = 35.2841
Maximum packet latency = 81
Minimum network latency = 8
Average network latency = 35.2589
Maximum network latency = 81
Slowest packet = 63712
Minimum flit latency = 7
Average flit latency = 34.2791
Maximum flit latency = 80
Slowest flit = 127424
Minimum fragmentation = 0
Average fragmentation = 0
Maximum fragmentation = 0
Minimum injected packet rate = 0.0196667 (at node 51)
Average injected packet rate = 0.0251302
Maximum injected packet rate = 0.0306667 (at node 21)
Minimum accepted packet rate = 0.02 (at node 6)
Average accepted packet rate = 0.0250677
Maximum accepted packet rate = 0.0323333 (at node 55)
Minimum injected flit rate = 0.0393333 (at node 51)
Average injected flit rate = 0.0502604
Maximum injected flit rate = 0.0613333 (at node 21)
Minimum accepted flit rate = 0.04 (at node 23)
Average accepted flit rate = 0.0501562
Maximum accepted flit rate = 0.0646667 (at node 55)
Average injected packet length = 2
Average accepted packet length = 2.00083
Total in-flight flits = 128 (128 measured)
latency change    = 0.00346097
throughput change = 0.000951158
latency change    = 0.000451368
throughput change = 0.0141745
Draining all recorded packets ...
Draining remaining packets ...
Time taken is 6222 cycles
====== Traffic class 0 ======
Overall minimum packet latency = 8 (1 samples)
Overall average packet latency = 49.7458 (1 samples)
Overall maximum packet latency = 197 (1 samples)
Overall minimum network latency = 8 (1 samples)
Overall average network latency = 49.3503 (1 samples)
Overall maximum network latency = 196 (1 samples)
Overall minimum flit latency = 5 (1 samples)
Overall average flit latency = 47.4313 (1 samples)
Overall maximum flit latency = 195 (1 samples)
Overall minimum fragmentation = 0 (1 samples)
Overall average fragmentation = 1.86542 (1 samples)
Overall maximum fragmentation = 38 (1 samples)
Overall minimum injected packet rate = 0.150333 (1 samples)
Overall average injected packet rate = 0.164542 (1 samples)
Overall maximum injected packet rate = 0.178333 (1 samples)
Overall minimum accepted packet rate = 0.151667 (1 samples)
Overall average accepted packet rate = 0.16426 (1 samples)
Overall maximum accepted packet rate = 0.180333 (1 samples)
Overall minimum injected flit rate = 0.300667 (1 samples)
Overall average injected flit rate = 0.329073 (1 samples)
Overall maximum injected flit rate = 0.356667 (1 samples)
Overall minimum accepted flit rate = 0.303667 (1 samples)
Overall average accepted flit rate = 0.328547 (1 samples)
Overall maximum accepted flit rate = 0.360333 (1 samples)
Overall average injected packet size = 1.99994 (1 samples)
Overall average accepted packet size = 2.00016 (1 samples)
Overall average hops = 6.29591 (1 samples)
====== Traffic class 1 ======
Overall minimum packet latency = 8 (1 samples)
Overall average packet latency = 35.3554 (1 samples)
Overall maximum packet latency = 81 (1 samples)
Overall minimum network latency = 8 (1 samples)
Overall average network latency = 35.3297 (1 samples)
Overall maximum network latency = 81 (1 samples)
Overall minimum flit latency = 7 (1 samples)
Overall average flit latency = 34.3741 (1 samples)
Overall maximum flit latency = 80 (1 samples)
Overall minimum fragmentation = 0 (1 samples)
Overall average fragmentation = 0 (1 samples)
Overall maximum fragmentation = 0 (1 samples)
Overall minimum injected packet rate = 0.0196667 (1 samples)
Overall average injected packet rate = 0.0251302 (1 samples)
Overall maximum injected packet rate = 0.0306667 (1 samples)
Overall minimum accepted packet rate = 0.02 (1 samples)
Overall average accepted packet rate = 0.0250677 (1 samples)
Overall maximum accepted packet rate = 0.0323333 (1 samples)
Overall minimum injected flit rate = 0.0393333 (1 samples)
Overall average injected flit rate = 0.0502604 (1 samples)
Overall maximum injected flit rate = 0.0613333 (1 samples)
Overall minimum accepted flit rate = 0.04 (1 samples)
Overall average accepted flit rate = 0.0501562 (1 samples)
Overall maximum accepted flit rate = 0.0646667 (1 samples)
Overall average injected packet size = 2 (1 samples)
Overall average accepted packet size = 2.00083 (1 samples)
Overall average hops = 6.19648 (1 samples)
Total run time 9.57288
