BEGIN Configuration File: ./examples/project_inputs/config-iqevc_tp-uniform_c1ir-0.05_c0ir-0.37
//
// EVC Router Config File -         
//
// Jason Deng, Mike Wang        
//        

//
// Flow control
//

num_vcs     = 5;
vc_buf_size = 6;

wait_for_tail_credit = 0;

vc_allocator = select;
sw_allocator = select;
alloc_iters  = 2;

credit_delay   = 2;
routing_delay  = 1;
vc_alloc_delay = 1;
sw_alloc_delay = 1;
st_final_delay = 1;

input_speedup     = 1;
output_speedup    = 1;
internal_speedup  = 1.0;

//
// Traffic
//

sim_type = latency;

warmup_periods = 3;
sample_period  = 1000;
sim_count = 1;

//
//topoogy
//

topology = mesh;
k  = 8;
n  = 2;

//
// Routing
//

router = iqevc;
routing_function = dor;

packet_size = 2;
use_read_write = 0;

traffic  = uniform;
injection_rate = {0.37,0.05};
injection_rate_uses_flits = 1;

classes = 2;
class_priority = {0,1};
priority = class;

noq = 0;
hold_switch_for_packet = 0;
vc_prioritize_empty = 0;

//
// express virtual channel settings
//

evc = 1;
num_evcs = 1;
evc_prioritized_class = 1;
selective_vc_request = 1;
hold_switch_for_evc_packet = 1;
evc_next_route = 1;

END Configuration File: ./examples/project_inputs/config-iqevc_tp-uniform_c1ir-0.05_c0ir-0.37
0
Class 0:
Minimum packet latency = 8
Average packet latency = 64.4585
Maximum packet latency = 418
Minimum network latency = 8
Average network latency = 63.6587
Maximum network latency = 416
Slowest packet = 4437
Minimum flit latency = 7
Average flit latency = 61.6966
Maximum flit latency = 415
Slowest flit = 8875
Minimum fragmentation = 0
Average fragmentation = 1.91692
Maximum fragmentation = 26
Minimum injected packet rate = 0.156 (at node 40)
Average injected packet rate = 0.183516
Maximum injected packet rate = 0.216 (at node 29)
Minimum accepted packet rate = 0.142 (at node 4)
Average accepted packet rate = 0.167563
Maximum accepted packet rate = 0.199 (at node 14)
Minimum injected flit rate = 0.311 (at node 40)
Average injected flit rate = 0.366844
Maximum injected flit rate = 0.432 (at node 29)
Minimum accepted flit rate = 0.284 (at node 4)
Average accepted flit rate = 0.335562
Maximum accepted flit rate = 0.398 (at node 14)
Average injected packet length = 1.99898
Average accepted packet length = 2.00261
Total in-flight flits = 2016 (0 measured)
Class 1:
Minimum packet latency = 8
Average packet latency = 37.8671
Maximum packet latency = 143
Minimum network latency = 8
Average network latency = 37.7485
Maximum network latency = 120
Slowest packet = 8842
Minimum flit latency = 7
Average flit latency = 36.738
Maximum flit latency = 119
Slowest flit = 17684
Minimum fragmentation = 0
Average fragmentation = 0
Maximum fragmentation = 0
Minimum injected packet rate = 0.016 (at node 40)
Average injected packet rate = 0.0250938
Maximum injected packet rate = 0.037 (at node 7)
Minimum accepted packet rate = 0.013 (at node 49)
Average accepted packet rate = 0.0239844
Maximum accepted packet rate = 0.036 (at node 59)
Minimum injected flit rate = 0.032 (at node 40)
Average injected flit rate = 0.0501875
Maximum injected flit rate = 0.074 (at node 7)
Minimum accepted flit rate = 0.026 (at node 49)
Average accepted flit rate = 0.0480156
Maximum accepted flit rate = 0.072 (at node 59)
Average injected packet length = 2
Average accepted packet length = 2.00195
Total in-flight flits = 139 (0 measured)
latency change    = 1
throughput change = 1
latency change    = 1
throughput change = 1
0
Class 0:
Minimum packet latency = 8
Average packet latency = 81.2329
Maximum packet latency = 569
Minimum network latency = 8
Average network latency = 77.4871
Maximum network latency = 487
Slowest packet = 13389
Minimum flit latency = 7
Average flit latency = 75.4679
Maximum flit latency = 482
Slowest flit = 26779
Minimum fragmentation = 0
Average fragmentation = 1.95012
Maximum fragmentation = 38
Minimum injected packet rate = 0.1635 (at node 7)
Average injected packet rate = 0.183859
Maximum injected packet rate = 0.2035 (at node 29)
Minimum accepted packet rate = 0.156 (at node 15)
Average accepted packet rate = 0.174961
Maximum accepted packet rate = 0.195 (at node 8)
Minimum injected flit rate = 0.327 (at node 7)
Average injected flit rate = 0.367617
Maximum injected flit rate = 0.407 (at node 29)
Minimum accepted flit rate = 0.312 (at node 15)
Average accepted flit rate = 0.350164
Maximum accepted flit rate = 0.39 (at node 8)
Average injected packet length = 1.99945
Average accepted packet length = 2.00138
Total in-flight flits = 2253 (0 measured)
Class 1:
Minimum packet latency = 8
Average packet latency = 41.0665
Maximum packet latency = 207
Minimum network latency = 8
Average network latency = 40.8544
Maximum network latency = 203
Slowest packet = 23531
Minimum flit latency = 7
Average flit latency = 39.7948
Maximum flit latency = 202
Slowest flit = 47062
Minimum fragmentation = 0
Average fragmentation = 0
Maximum fragmentation = 0
Minimum injected packet rate = 0.019 (at node 56)
Average injected packet rate = 0.0247891
Maximum injected packet rate = 0.034 (at node 50)
Minimum accepted packet rate = 0.015 (at node 36)
Average accepted packet rate = 0.0243047
Maximum accepted packet rate = 0.0325 (at node 50)
Minimum injected flit rate = 0.038 (at node 56)
Average injected flit rate = 0.0495625
Maximum injected flit rate = 0.068 (at node 50)
Minimum accepted flit rate = 0.03 (at node 36)
Average accepted flit rate = 0.0486172
Maximum accepted flit rate = 0.065 (at node 50)
Average injected packet length = 1.99937
Average accepted packet length = 2.00032
Total in-flight flits = 123 (0 measured)
latency change    = 0.206497
throughput change = 0.0416992
latency change    = 0.0779086
throughput change = 0.0123735
0
Class 0:
Minimum packet latency = 8
Average packet latency = 109.159
Maximum packet latency = 682
Minimum network latency = 8
Average network latency = 99.8208
Maximum network latency = 559
Slowest packet = 22412
Minimum flit latency = 7
Average flit latency = 97.6735
Maximum flit latency = 556
Slowest flit = 39983
Minimum fragmentation = 0
Average fragmentation = 2.00744
Maximum fragmentation = 35
Minimum injected packet rate = 0.151 (at node 38)
Average injected packet rate = 0.185781
Maximum injected packet rate = 0.211 (at node 47)
Minimum accepted packet rate = 0.152 (at node 17)
Average accepted packet rate = 0.184812
Maximum accepted packet rate = 0.206 (at node 56)
Minimum injected flit rate = 0.302 (at node 38)
Average injected flit rate = 0.371594
Maximum injected flit rate = 0.422 (at node 47)
Minimum accepted flit rate = 0.305 (at node 17)
Average accepted flit rate = 0.369688
Maximum accepted flit rate = 0.411 (at node 56)
Average injected packet length = 2.00017
Average accepted packet length = 2.00034
Total in-flight flits = 2373 (0 measured)
Class 1:
Minimum packet latency = 8
Average packet latency = 45.1462
Maximum packet latency = 176
Minimum network latency = 8
Average network latency = 44.823
Maximum network latency = 172
Slowest packet = 24462
Minimum flit latency = 7
Average flit latency = 43.7208
Maximum flit latency = 171
Slowest flit = 75500
Minimum fragmentation = 0
Average fragmentation = 0
Maximum fragmentation = 0
Minimum injected packet rate = 0.016 (at node 12)
Average injected packet rate = 0.0239688
Maximum injected packet rate = 0.038 (at node 59)
Minimum accepted packet rate = 0.013 (at node 29)
Average accepted packet rate = 0.0238281
Maximum accepted packet rate = 0.038 (at node 11)
Minimum injected flit rate = 0.032 (at node 12)
Average injected flit rate = 0.0479062
Maximum injected flit rate = 0.076 (at node 59)
Minimum accepted flit rate = 0.026 (at node 29)
Average accepted flit rate = 0.0476875
Maximum accepted flit rate = 0.077 (at node 57)
Average injected packet length = 1.9987
Average accepted packet length = 2.00131
Total in-flight flits = 139 (0 measured)
latency change    = 0.255832
throughput change = 0.0528107
latency change    = 0.0903662
throughput change = 0.0194954
Warmed up ...Time used is 3000 cycles
1
Class 0:
Minimum packet latency = 8
Average packet latency = 98.4365
Maximum packet latency = 710
Minimum network latency = 8
Average network latency = 89.9537
Maximum network latency = 572
Slowest packet = 40145
Minimum flit latency = 7
Average flit latency = 95.6028
Maximum flit latency = 570
Slowest flit = 87503
Minimum fragmentation = 0
Average fragmentation = 2.02783
Maximum fragmentation = 25
Minimum injected packet rate = 0.112 (at node 55)
Average injected packet rate = 0.182781
Maximum injected packet rate = 0.211 (at node 36)
Minimum accepted packet rate = 0.156 (at node 45)
Average accepted packet rate = 0.183297
Maximum accepted packet rate = 0.207 (at node 8)
Minimum injected flit rate = 0.223 (at node 55)
Average injected flit rate = 0.365438
Maximum injected flit rate = 0.422 (at node 36)
Minimum accepted flit rate = 0.311 (at node 45)
Average accepted flit rate = 0.366656
Maximum accepted flit rate = 0.415 (at node 8)
Average injected packet length = 1.99932
Average accepted packet length = 2.00034
Total in-flight flits = 2305 (2305 measured)
Class 1:
Minimum packet latency = 8
Average packet latency = 43.8051
Maximum packet latency = 232
Minimum network latency = 8
Average network latency = 43.2881
Maximum network latency = 213
Slowest packet = 45162
Minimum flit latency = 7
Average flit latency = 43.0145
Maximum flit latency = 212
Slowest flit = 95932
Minimum fragmentation = 0
Average fragmentation = 0
Maximum fragmentation = 0
Minimum injected packet rate = 0.014 (at node 47)
Average injected packet rate = 0.0252656
Maximum injected packet rate = 0.037 (at node 27)
Minimum accepted packet rate = 0.016 (at node 51)
Average accepted packet rate = 0.0254062
Maximum accepted packet rate = 0.037 (at node 45)
Minimum injected flit rate = 0.028 (at node 47)
Average injected flit rate = 0.0505156
Maximum injected flit rate = 0.074 (at node 27)
Minimum accepted flit rate = 0.032 (at node 51)
Average accepted flit rate = 0.0507812
Maximum accepted flit rate = 0.074 (at node 45)
Average injected packet length = 1.99938
Average accepted packet length = 1.99877
Total in-flight flits = 127 (127 measured)
latency change    = 0.108931
throughput change = 0.00826728
latency change    = 0.0306148
throughput change = 0.0609231
1
Class 0:
Minimum packet latency = 8
Average packet latency = 112.331
Maximum packet latency = 1069
Minimum network latency = 8
Average network latency = 96.5312
Maximum network latency = 572
Slowest packet = 40145
Minimum flit latency = 7
Average flit latency = 97.9531
Maximum flit latency = 570
Slowest flit = 87503
Minimum fragmentation = 0
Average fragmentation = 2.02282
Maximum fragmentation = 39
Minimum injected packet rate = 0.138 (at node 55)
Average injected packet rate = 0.183711
Maximum injected packet rate = 0.203 (at node 43)
Minimum accepted packet rate = 0.164 (at node 63)
Average accepted packet rate = 0.182945
Maximum accepted packet rate = 0.203 (at node 58)
Minimum injected flit rate = 0.276 (at node 55)
Average injected flit rate = 0.367359
Maximum injected flit rate = 0.4055 (at node 43)
Minimum accepted flit rate = 0.3285 (at node 63)
Average accepted flit rate = 0.36593
Maximum accepted flit rate = 0.4065 (at node 58)
Average injected packet length = 1.99966
Average accepted packet length = 2.00021
Total in-flight flits = 2562 (2562 measured)
Class 1:
Minimum packet latency = 8
Average packet latency = 44.7797
Maximum packet latency = 232
Minimum network latency = 8
Average network latency = 44.3433
Maximum network latency = 213
Slowest packet = 45162
Minimum flit latency = 7
Average flit latency = 43.6157
Maximum flit latency = 212
Slowest flit = 95932
Minimum fragmentation = 0
Average fragmentation = 0
Maximum fragmentation = 0
Minimum injected packet rate = 0.018 (at node 8)
Average injected packet rate = 0.0252031
Maximum injected packet rate = 0.034 (at node 27)
Minimum accepted packet rate = 0.0185 (at node 20)
Average accepted packet rate = 0.0252031
Maximum accepted packet rate = 0.032 (at node 7)
Minimum injected flit rate = 0.0355 (at node 8)
Average injected flit rate = 0.0504062
Maximum injected flit rate = 0.068 (at node 27)
Minimum accepted flit rate = 0.0365 (at node 20)
Average accepted flit rate = 0.0503906
Maximum accepted flit rate = 0.064 (at node 7)
Average injected packet length = 2
Average accepted packet length = 1.99938
Total in-flight flits = 141 (141 measured)
latency change    = 0.123695
throughput change = 0.00198552
latency change    = 0.0217637
throughput change = 0.00775194
1
Class 0:
Minimum packet latency = 8
Average packet latency = 122.412
Maximum packet latency = 1480
Minimum network latency = 8
Average network latency = 99.8827
Maximum network latency = 584
Slowest packet = 40145
Minimum flit latency = 7
Average flit latency = 99.9935
Maximum flit latency = 581
Slowest flit = 141475
Minimum fragmentation = 0
Average fragmentation = 2.01789
Maximum fragmentation = 39
Minimum injected packet rate = 0.131667 (at node 55)
Average injected packet rate = 0.182927
Maximum injected packet rate = 0.199 (at node 25)
Minimum accepted packet rate = 0.167 (at node 63)
Average accepted packet rate = 0.182745
Maximum accepted packet rate = 0.203333 (at node 15)
Minimum injected flit rate = 0.263333 (at node 55)
Average injected flit rate = 0.365833
Maximum injected flit rate = 0.397667 (at node 25)
Minimum accepted flit rate = 0.334 (at node 63)
Average accepted flit rate = 0.365474
Maximum accepted flit rate = 0.406333 (at node 15)
Average injected packet length = 1.99989
Average accepted packet length = 1.99991
Total in-flight flits = 2442 (2442 measured)
Class 1:
Minimum packet latency = 8
Average packet latency = 45.9177
Maximum packet latency = 232
Minimum network latency = 8
Average network latency = 45.4402
Maximum network latency = 213
Slowest packet = 45162
Minimum flit latency = 7
Average flit latency = 44.548
Maximum flit latency = 212
Slowest flit = 95932
Minimum fragmentation = 0
Average fragmentation = 0
Maximum fragmentation = 0
Minimum injected packet rate = 0.02 (at node 8)
Average injected packet rate = 0.025276
Maximum injected packet rate = 0.032 (at node 60)
Minimum accepted packet rate = 0.0193333 (at node 20)
Average accepted packet rate = 0.02525
Maximum accepted packet rate = 0.0313333 (at node 54)
Minimum injected flit rate = 0.04 (at node 8)
Average injected flit rate = 0.0505625
Maximum injected flit rate = 0.064 (at node 60)
Minimum accepted flit rate = 0.0383333 (at node 20)
Average accepted flit rate = 0.0504844
Maximum accepted flit rate = 0.0626667 (at node 54)
Average injected packet length = 2.00041
Average accepted packet length = 1.99938
Total in-flight flits = 152 (152 measured)
latency change    = 0.0823471
throughput change = 0.00124695
latency change    = 0.0247838
throughput change = 0.00185701
1
Class 0:
Minimum packet latency = 8
Average packet latency = 131.355
Maximum packet latency = 1642
Minimum network latency = 8
Average network latency = 102.092
Maximum network latency = 584
Slowest packet = 40145
Minimum flit latency = 6
Average flit latency = 101.598
Maximum flit latency = 581
Slowest flit = 141475
Minimum fragmentation = 0
Average fragmentation = 2.00018
Maximum fragmentation = 39
Minimum injected packet rate = 0.138 (at node 55)
Average injected packet rate = 0.182617
Maximum injected packet rate = 0.19475 (at node 25)
Minimum accepted packet rate = 0.16875 (at node 31)
Average accepted packet rate = 0.182121
Maximum accepted packet rate = 0.20375 (at node 15)
Minimum injected flit rate = 0.276 (at node 55)
Average injected flit rate = 0.365223
Maximum injected flit rate = 0.3895 (at node 25)
Minimum accepted flit rate = 0.3375 (at node 31)
Average accepted flit rate = 0.364203
Maximum accepted flit rate = 0.40725 (at node 15)
Average injected packet length = 1.99994
Average accepted packet length = 1.99979
Total in-flight flits = 2643 (2643 measured)
Class 1:
Minimum packet latency = 8
Average packet latency = 46.3636
Maximum packet latency = 245
Minimum network latency = 8
Average network latency = 45.7925
Maximum network latency = 231
Slowest packet = 45162
Minimum flit latency = 7
Average flit latency = 44.8177
Maximum flit latency = 230
Slowest flit = 172750
Minimum fragmentation = 0
Average fragmentation = 0
Maximum fragmentation = 0
Minimum injected packet rate = 0.02 (at node 8)
Average injected packet rate = 0.0252734
Maximum injected packet rate = 0.03125 (at node 60)
Minimum accepted packet rate = 0.02 (at node 23)
Average accepted packet rate = 0.0252227
Maximum accepted packet rate = 0.03075 (at node 62)
Minimum injected flit rate = 0.04 (at node 8)
Average injected flit rate = 0.0505547
Maximum injected flit rate = 0.0625 (at node 60)
Minimum accepted flit rate = 0.04 (at node 23)
Average accepted flit rate = 0.0504375
Maximum accepted flit rate = 0.0615 (at node 62)
Average injected packet length = 2.00031
Average accepted packet length = 1.99969
Total in-flight flits = 167 (167 measured)
latency change    = 0.0680886
throughput change = 0.00348935
latency change    = 0.00961696
throughput change = 0.000929368
1
Class 0:
Minimum packet latency = 8
Average packet latency = 141.185
Maximum packet latency = 1902
Minimum network latency = 8
Average network latency = 104.794
Maximum network latency = 778
Slowest packet = 40145
Minimum flit latency = 5
Average flit latency = 103.897
Maximum flit latency = 776
Slowest flit = 189268
Minimum fragmentation = 0
Average fragmentation = 1.99661
Maximum fragmentation = 43
Minimum injected packet rate = 0.1392 (at node 55)
Average injected packet rate = 0.181838
Maximum injected packet rate = 0.1938 (at node 25)
Minimum accepted packet rate = 0.1688 (at node 26)
Average accepted packet rate = 0.181634
Maximum accepted packet rate = 0.2006 (at node 15)
Minimum injected flit rate = 0.2782 (at node 55)
Average injected flit rate = 0.363659
Maximum injected flit rate = 0.3876 (at node 25)
Minimum accepted flit rate = 0.3374 (at node 26)
Average accepted flit rate = 0.363272
Maximum accepted flit rate = 0.401 (at node 15)
Average injected packet length = 1.99991
Average accepted packet length = 2.00002
Total in-flight flits = 2504 (2504 measured)
Class 1:
Minimum packet latency = 8
Average packet latency = 47.9336
Maximum packet latency = 322
Minimum network latency = 8
Average network latency = 47.2192
Maximum network latency = 322
Slowest packet = 98906
Minimum flit latency = 7
Average flit latency = 46.1718
Maximum flit latency = 321
Slowest flit = 197812
Minimum fragmentation = 0
Average fragmentation = 0
Maximum fragmentation = 0
Minimum injected packet rate = 0.021 (at node 2)
Average injected packet rate = 0.0251719
Maximum injected packet rate = 0.03 (at node 36)
Minimum accepted packet rate = 0.02 (at node 42)
Average accepted packet rate = 0.0251969
Maximum accepted packet rate = 0.0302 (at node 11)
Minimum injected flit rate = 0.042 (at node 2)
Average injected flit rate = 0.0503406
Maximum injected flit rate = 0.06 (at node 36)
Minimum accepted flit rate = 0.04 (at node 42)
Average accepted flit rate = 0.0503875
Maximum accepted flit rate = 0.0604 (at node 11)
Average injected packet length = 1.99988
Average accepted packet length = 1.99975
Total in-flight flits = 127 (127 measured)
latency change    = 0.06962
throughput change = 0.00256351
latency change    = 0.0327526
throughput change = 0.00099231
1
Class 0:
Minimum packet latency = 8
Average packet latency = 153.127
Maximum packet latency = 2150
Minimum network latency = 8
Average network latency = 106.376
Maximum network latency = 871
Slowest packet = 40145
Minimum flit latency = 5
Average flit latency = 105.252
Maximum flit latency = 868
Slowest flit = 215905
Minimum fragmentation = 0
Average fragmentation = 1.9896
Maximum fragmentation = 43
Minimum injected packet rate = 0.139667 (at node 55)
Average injected packet rate = 0.18076
Maximum injected packet rate = 0.196 (at node 17)
Minimum accepted packet rate = 0.1655 (at node 26)
Average accepted packet rate = 0.180234
Maximum accepted packet rate = 0.1975 (at node 15)
Minimum injected flit rate = 0.279167 (at node 55)
Average injected flit rate = 0.3615
Maximum injected flit rate = 0.392167 (at node 17)
Minimum accepted flit rate = 0.331 (at node 26)
Average accepted flit rate = 0.36049
Maximum accepted flit rate = 0.395 (at node 15)
Average injected packet length = 1.99988
Average accepted packet length = 2.00012
Total in-flight flits = 2779 (2779 measured)
Class 1:
Minimum packet latency = 8
Average packet latency = 49.3338
Maximum packet latency = 385
Minimum network latency = 8
Average network latency = 48.4386
Maximum network latency = 374
Slowest packet = 112465
Minimum flit latency = 7
Average flit latency = 47.3527
Maximum flit latency = 373
Slowest flit = 224930
Minimum fragmentation = 0
Average fragmentation = 0
Maximum fragmentation = 0
Minimum injected packet rate = 0.0215 (at node 54)
Average injected packet rate = 0.0252969
Maximum injected packet rate = 0.0285 (at node 32)
Minimum accepted packet rate = 0.021 (at node 42)
Average accepted packet rate = 0.0252526
Maximum accepted packet rate = 0.0295 (at node 54)
Minimum injected flit rate = 0.043 (at node 54)
Average injected flit rate = 0.050599
Maximum injected flit rate = 0.057 (at node 32)
Minimum accepted flit rate = 0.042 (at node 42)
Average accepted flit rate = 0.0505052
Maximum accepted flit rate = 0.059 (at node 54)
Average injected packet length = 2.00021
Average accepted packet length = 2
Total in-flight flits = 181 (181 measured)
latency change    = 0.077987
throughput change = 0.00771809
latency change    = 0.0283827
throughput change = 0.00233062
1
Class 0:
Minimum packet latency = 8
Average packet latency = 168.839
Maximum packet latency = 2249
Minimum network latency = 8
Average network latency = 108.806
Maximum network latency = 953
Slowest packet = 40145
Minimum flit latency = 5
Average flit latency = 107.497
Maximum flit latency = 952
Slowest flit = 220964
Minimum fragmentation = 0
Average fragmentation = 1.98553
Maximum fragmentation = 43
Minimum injected packet rate = 0.141 (at node 55)
Average injected packet rate = 0.180451
Maximum injected packet rate = 0.197714 (at node 25)
Minimum accepted packet rate = 0.168571 (at node 31)
Average accepted packet rate = 0.179837
Maximum accepted packet rate = 0.195143 (at node 15)
Minimum injected flit rate = 0.282 (at node 55)
Average injected flit rate = 0.360908
Maximum injected flit rate = 0.395429 (at node 25)
Minimum accepted flit rate = 0.337143 (at node 31)
Average accepted flit rate = 0.359663
Maximum accepted flit rate = 0.390286 (at node 15)
Average injected packet length = 2.00004
Average accepted packet length = 1.99994
Total in-flight flits = 2948 (2948 measured)
Class 1:
Minimum packet latency = 8
Average packet latency = 50.528
Maximum packet latency = 432
Minimum network latency = 8
Average network latency = 49.468
Maximum network latency = 384
Slowest packet = 112465
Minimum flit latency = 7
Average flit latency = 48.3375
Maximum flit latency = 383
Slowest flit = 229886
Minimum fragmentation = 0
Average fragmentation = 0
Maximum fragmentation = 0
Minimum injected packet rate = 0.0218571 (at node 54)
Average injected packet rate = 0.025308
Maximum injected packet rate = 0.0282857 (at node 32)
Minimum accepted packet rate = 0.0208571 (at node 42)
Average accepted packet rate = 0.0252344
Maximum accepted packet rate = 0.0291429 (at node 54)
Minimum injected flit rate = 0.0435714 (at node 54)
Average injected flit rate = 0.0506138
Maximum injected flit rate = 0.0565714 (at node 32)
Minimum accepted flit rate = 0.0417143 (at node 42)
Average accepted flit rate = 0.0504665
Maximum accepted flit rate = 0.0582857 (at node 54)
Average injected packet length = 1.99991
Average accepted packet length = 1.99991
Total in-flight flits = 208 (208 measured)
latency change    = 0.0930607
throughput change = 0.00229837
latency change    = 0.0236338
throughput change = 0.000766656
Draining all recorded packets ...
Class 0:
Remaining flits: 278988 278989 279298 279299 279846 279847 279986 279987 280352 280353 [...] (2921 flits)
Measured flits: 279298 279299 279846 279847 280552 280553 281208 281209 281220 281221 [...] (492 flits)
Class 1:
Remaining flits: 288466 288467 288734 288735 288750 288751 289018 289019 289216 289217 [...] (177 flits)
Measured flits: (0 flits)
Class 0:
Remaining flits: 304258 304259 305256 305257 305758 305759 305878 305879 305926 305927 [...] (3016 flits)
Measured flits: 307774 307775 308064 308065 308110 308111 308192 308193 308672 308673 [...] (179 flits)
Class 1:
Remaining flits: 312970 312971 314384 314385 314498 314499 314788 314789 315230 315231 [...] (178 flits)
Measured flits: (0 flits)
Draining remaining packets ...
Time taken is 12632 cycles
====== Traffic class 0 ======
Overall minimum packet latency = 8 (1 samples)
Overall average packet latency = 207.967 (1 samples)
Overall maximum packet latency = 2692 (1 samples)
Overall minimum network latency = 8 (1 samples)
Overall average network latency = 113.892 (1 samples)
Overall maximum network latency = 953 (1 samples)
Overall minimum flit latency = 5 (1 samples)
Overall average flit latency = 112.248 (1 samples)
Overall maximum flit latency = 952 (1 samples)
Overall minimum fragmentation = 0 (1 samples)
Overall average fragmentation = 1.99093 (1 samples)
Overall maximum fragmentation = 43 (1 samples)
Overall minimum injected packet rate = 0.141 (1 samples)
Overall average injected packet rate = 0.180451 (1 samples)
Overall maximum injected packet rate = 0.197714 (1 samples)
Overall minimum accepted packet rate = 0.168571 (1 samples)
Overall average accepted packet rate = 0.179837 (1 samples)
Overall maximum accepted packet rate = 0.195143 (1 samples)
Overall minimum injected flit rate = 0.282 (1 samples)
Overall average injected flit rate = 0.360908 (1 samples)
Overall maximum injected flit rate = 0.395429 (1 samples)
Overall minimum accepted flit rate = 0.337143 (1 samples)
Overall average accepted flit rate = 0.359663 (1 samples)
Overall maximum accepted flit rate = 0.390286 (1 samples)
Overall average injected packet size = 2.00004 (1 samples)
Overall average accepted packet size = 1.99994 (1 samples)
Overall average hops = 6.26135 (1 samples)
====== Traffic class 1 ======
Overall minimum packet latency = 8 (1 samples)
Overall average packet latency = 50.7816 (1 samples)
Overall maximum packet latency = 432 (1 samples)
Overall minimum network latency = 8 (1 samples)
Overall average network latency = 49.7117 (1 samples)
Overall maximum network latency = 384 (1 samples)
Overall minimum flit latency = 7 (1 samples)
Overall average flit latency = 49.5622 (1 samples)
Overall maximum flit latency = 383 (1 samples)
Overall minimum fragmentation = 0 (1 samples)
Overall average fragmentation = 0 (1 samples)
Overall maximum fragmentation = 0 (1 samples)
Overall minimum injected packet rate = 0.0218571 (1 samples)
Overall average injected packet rate = 0.025308 (1 samples)
Overall maximum injected packet rate = 0.0282857 (1 samples)
Overall minimum accepted packet rate = 0.0208571 (1 samples)
Overall average accepted packet rate = 0.0252344 (1 samples)
Overall maximum accepted packet rate = 0.0291429 (1 samples)
Overall minimum injected flit rate = 0.0435714 (1 samples)
Overall average injected flit rate = 0.0506138 (1 samples)
Overall maximum injected flit rate = 0.0565714 (1 samples)
Overall minimum accepted flit rate = 0.0417143 (1 samples)
Overall average accepted flit rate = 0.0504665 (1 samples)
Overall maximum accepted flit rate = 0.0582857 (1 samples)
Overall average injected packet size = 1.99991 (1 samples)
Overall average accepted packet size = 1.99991 (1 samples)
Overall average hops = 6.227 (1 samples)
Total run time 72.7798
