BEGIN Configuration File: ./examples/project_inputs/config-iq_tp-uniform_c1ir-0.05_c0ir-0.35_prio-islip
//
// EVC Router Config File -         
//
// Jason Deng, Mike Wang        
//        

//
// Flow control
//

num_vcs     = 5;
vc_buf_size = 6;

wait_for_tail_credit = 0;

vc_allocator = islip;
sw_allocator = islip;
alloc_iters  = 2;

credit_delay   = 2;
routing_delay  = 1;
vc_alloc_delay = 1;
sw_alloc_delay = 1;
st_final_delay = 1;

input_speedup     = 1;
output_speedup    = 1;
internal_speedup  = 1.0;

//
// Traffic
//

sim_type = latency;

warmup_periods = 3;
sample_period  = 1000;
sim_count = 1;

//
//topoogy
//

topology = mesh;
k  = 8;
n  = 2;

//
// Routing
//

router = iq;
routing_function = dor;

packet_size = 2;
use_read_write = 0;

traffic  = uniform;
injection_rate = {0.35,0.05};
injection_rate_uses_flits = 1;

classes = 2;
class_priority = {0,0};
priority = class;

noq = 0;
hold_switch_for_packet = 0;
vc_prioritize_empty = 0;

//
// express virtual channel settings
//

evc = 1;
num_evcs = 1;
evc_prioritized_class = 1;
selective_vc_request = 1;
hold_switch_for_evc_packet = 1;
evc_next_route = 1;

END Configuration File: ./examples/project_inputs/config-iq_tp-uniform_c1ir-0.05_c0ir-0.35_prio-islip
0
Class 0:
Minimum packet latency = 8
Average packet latency = 51.1182
Maximum packet latency = 182
Minimum network latency = 8
Average network latency = 50.746
Maximum network latency = 181
Slowest packet = 8004
Minimum flit latency = 7
Average flit latency = 48.8453
Maximum flit latency = 180
Slowest flit = 16008
Minimum fragmentation = 0
Average fragmentation = 1.76404
Maximum fragmentation = 27
Minimum injected packet rate = 0.153 (at node 48)
Average injected packet rate = 0.173891
Maximum injected packet rate = 0.2 (at node 24)
Minimum accepted packet rate = 0.137 (at node 4)
Average accepted packet rate = 0.164094
Maximum accepted packet rate = 0.19 (at node 14)
Minimum injected flit rate = 0.306 (at node 48)
Average injected flit rate = 0.347609
Maximum injected flit rate = 0.4 (at node 24)
Minimum accepted flit rate = 0.274 (at node 4)
Average accepted flit rate = 0.328609
Maximum accepted flit rate = 0.38 (at node 14)
Average injected packet length = 1.99901
Average accepted packet length = 2.00257
Total in-flight flits = 1227 (0 measured)
Class 1:
Minimum packet latency = 8
Average packet latency = 51.2941
Maximum packet latency = 166
Minimum network latency = 8
Average network latency = 51.1956
Maximum network latency = 166
Slowest packet = 6394
Minimum flit latency = 7
Average flit latency = 49.0741
Maximum flit latency = 164
Slowest flit = 12789
Minimum fragmentation = 0
Average fragmentation = 1.80173
Maximum fragmentation = 16
Minimum injected packet rate = 0.015 (at node 15)
Average injected packet rate = 0.0250469
Maximum injected packet rate = 0.037 (at node 45)
Minimum accepted packet rate = 0.014 (at node 18)
Average accepted packet rate = 0.0234844
Maximum accepted packet rate = 0.036 (at node 60)
Minimum injected flit rate = 0.03 (at node 15)
Average injected flit rate = 0.0500625
Maximum injected flit rate = 0.074 (at node 45)
Minimum accepted flit rate = 0.028 (at node 18)
Average accepted flit rate = 0.0470156
Maximum accepted flit rate = 0.072 (at node 60)
Average injected packet length = 1.99875
Average accepted packet length = 2.002
Total in-flight flits = 197 (0 measured)
latency change    = 1
throughput change = 1
latency change    = 1
throughput change = 1
0
Class 0:
Minimum packet latency = 8
Average packet latency = 53.0016
Maximum packet latency = 201
Minimum network latency = 8
Average network latency = 52.6242
Maximum network latency = 201
Slowest packet = 16014
Minimum flit latency = 7
Average flit latency = 50.7002
Maximum flit latency = 213
Slowest flit = 45568
Minimum fragmentation = 0
Average fragmentation = 1.81058
Maximum fragmentation = 27
Minimum injected packet rate = 0.1525 (at node 36)
Average injected packet rate = 0.173891
Maximum injected packet rate = 0.192 (at node 35)
Minimum accepted packet rate = 0.1515 (at node 36)
Average accepted packet rate = 0.168813
Maximum accepted packet rate = 0.1835 (at node 51)
Minimum injected flit rate = 0.305 (at node 36)
Average injected flit rate = 0.347633
Maximum injected flit rate = 0.3835 (at node 35)
Minimum accepted flit rate = 0.3035 (at node 36)
Average accepted flit rate = 0.337914
Maximum accepted flit rate = 0.3685 (at node 51)
Average injected packet length = 1.99915
Average accepted packet length = 2.00171
Total in-flight flits = 1263 (0 measured)
Class 1:
Minimum packet latency = 8
Average packet latency = 53.7354
Maximum packet latency = 202
Minimum network latency = 8
Average network latency = 53.6356
Maximum network latency = 202
Slowest packet = 11251
Minimum flit latency = 7
Average flit latency = 51.476
Maximum flit latency = 200
Slowest flit = 22503
Minimum fragmentation = 0
Average fragmentation = 1.84077
Maximum fragmentation = 18
Minimum injected packet rate = 0.0185 (at node 21)
Average injected packet rate = 0.0253906
Maximum injected packet rate = 0.036 (at node 45)
Minimum accepted packet rate = 0.0175 (at node 32)
Average accepted packet rate = 0.0246797
Maximum accepted packet rate = 0.0305 (at node 8)
Minimum injected flit rate = 0.037 (at node 21)
Average injected flit rate = 0.0507812
Maximum injected flit rate = 0.072 (at node 45)
Minimum accepted flit rate = 0.035 (at node 32)
Average accepted flit rate = 0.0493828
Maximum accepted flit rate = 0.061 (at node 8)
Average injected packet length = 2
Average accepted packet length = 2.00095
Total in-flight flits = 179 (0 measured)
latency change    = 0.0355357
throughput change = 0.0275357
latency change    = 0.0454316
throughput change = 0.0479355
0
Class 0:
Minimum packet latency = 8
Average packet latency = 56.2564
Maximum packet latency = 232
Minimum network latency = 8
Average network latency = 55.881
Maximum network latency = 232
Slowest packet = 24330
Minimum flit latency = 6
Average flit latency = 53.9106
Maximum flit latency = 231
Slowest flit = 48661
Minimum fragmentation = 0
Average fragmentation = 1.8319
Maximum fragmentation = 30
Minimum injected packet rate = 0.15 (at node 29)
Average injected packet rate = 0.174719
Maximum injected packet rate = 0.206 (at node 49)
Minimum accepted packet rate = 0.146 (at node 17)
Average accepted packet rate = 0.175953
Maximum accepted packet rate = 0.205 (at node 9)
Minimum injected flit rate = 0.3 (at node 29)
Average injected flit rate = 0.349578
Maximum injected flit rate = 0.412 (at node 49)
Minimum accepted flit rate = 0.29 (at node 17)
Average accepted flit rate = 0.351578
Maximum accepted flit rate = 0.411 (at node 9)
Average injected packet length = 2.0008
Average accepted packet length = 1.99814
Total in-flight flits = 1126 (0 measured)
Class 1:
Minimum packet latency = 8
Average packet latency = 55.896
Maximum packet latency = 196
Minimum network latency = 8
Average network latency = 55.7875
Maximum network latency = 196
Slowest packet = 29471
Minimum flit latency = 7
Average flit latency = 53.5955
Maximum flit latency = 195
Slowest flit = 58942
Minimum fragmentation = 0
Average fragmentation = 1.94347
Maximum fragmentation = 15
Minimum injected packet rate = 0.017 (at node 23)
Average injected packet rate = 0.0240313
Maximum injected packet rate = 0.041 (at node 28)
Minimum accepted packet rate = 0.014 (at node 56)
Average accepted packet rate = 0.0240469
Maximum accepted packet rate = 0.036 (at node 16)
Minimum injected flit rate = 0.034 (at node 23)
Average injected flit rate = 0.0480469
Maximum injected flit rate = 0.082 (at node 28)
Minimum accepted flit rate = 0.028 (at node 56)
Average accepted flit rate = 0.048125
Maximum accepted flit rate = 0.072 (at node 16)
Average injected packet length = 1.99935
Average accepted packet length = 2.0013
Total in-flight flits = 175 (0 measured)
latency change    = 0.0578557
throughput change = 0.0388649
latency change    = 0.0386553
throughput change = 0.0261364
Warmed up ...Time used is 3000 cycles
1
Class 0:
Minimum packet latency = 8
Average packet latency = 54.8906
Maximum packet latency = 281
Minimum network latency = 8
Average network latency = 54.5088
Maximum network latency = 281
Slowest packet = 47377
Minimum flit latency = 7
Average flit latency = 53.2704
Maximum flit latency = 280
Slowest flit = 94755
Minimum fragmentation = 0
Average fragmentation = 1.84596
Maximum fragmentation = 26
Minimum injected packet rate = 0.145 (at node 50)
Average injected packet rate = 0.175
Maximum injected packet rate = 0.207 (at node 29)
Minimum accepted packet rate = 0.152 (at node 43)
Average accepted packet rate = 0.174359
Maximum accepted packet rate = 0.194 (at node 8)
Minimum injected flit rate = 0.29 (at node 50)
Average injected flit rate = 0.350016
Maximum injected flit rate = 0.414 (at node 29)
Minimum accepted flit rate = 0.304 (at node 43)
Average accepted flit rate = 0.348922
Maximum accepted flit rate = 0.388 (at node 8)
Average injected packet length = 2.00009
Average accepted packet length = 2.00116
Total in-flight flits = 1195 (1195 measured)
Class 1:
Minimum packet latency = 8
Average packet latency = 54.7334
Maximum packet latency = 257
Minimum network latency = 8
Average network latency = 54.6463
Maximum network latency = 257
Slowest packet = 47367
Minimum flit latency = 7
Average flit latency = 53.4232
Maximum flit latency = 256
Slowest flit = 94734
Minimum fragmentation = 0
Average fragmentation = 1.90355
Maximum fragmentation = 19
Minimum injected packet rate = 0.013 (at node 34)
Average injected packet rate = 0.0247656
Maximum injected packet rate = 0.037 (at node 44)
Minimum accepted packet rate = 0.011 (at node 10)
Average accepted packet rate = 0.0247344
Maximum accepted packet rate = 0.036 (at node 44)
Minimum injected flit rate = 0.026 (at node 34)
Average injected flit rate = 0.0495156
Maximum injected flit rate = 0.074 (at node 44)
Minimum accepted flit rate = 0.021 (at node 10)
Average accepted flit rate = 0.0494687
Maximum accepted flit rate = 0.072 (at node 47)
Average injected packet length = 1.99937
Average accepted packet length = 2
Total in-flight flits = 179 (179 measured)
latency change    = 0.0248811
throughput change = 0.00761274
latency change    = 0.0212414
throughput change = 0.0271636
1
Class 0:
Minimum packet latency = 8
Average packet latency = 56.7547
Maximum packet latency = 281
Minimum network latency = 8
Average network latency = 56.3684
Maximum network latency = 281
Slowest packet = 47377
Minimum flit latency = 7
Average flit latency = 54.7085
Maximum flit latency = 280
Slowest flit = 94755
Minimum fragmentation = 0
Average fragmentation = 1.87213
Maximum fragmentation = 26
Minimum injected packet rate = 0.1535 (at node 50)
Average injected packet rate = 0.175266
Maximum injected packet rate = 0.199 (at node 23)
Minimum accepted packet rate = 0.1545 (at node 6)
Average accepted packet rate = 0.174742
Maximum accepted packet rate = 0.198 (at node 58)
Minimum injected flit rate = 0.307 (at node 50)
Average injected flit rate = 0.350523
Maximum injected flit rate = 0.3975 (at node 23)
Minimum accepted flit rate = 0.3095 (at node 6)
Average accepted flit rate = 0.349664
Maximum accepted flit rate = 0.3965 (at node 58)
Average injected packet length = 1.99996
Average accepted packet length = 2.00103
Total in-flight flits = 1239 (1239 measured)
Class 1:
Minimum packet latency = 8
Average packet latency = 56.2322
Maximum packet latency = 257
Minimum network latency = 8
Average network latency = 56.1563
Maximum network latency = 257
Slowest packet = 47367
Minimum flit latency = 7
Average flit latency = 54.4158
Maximum flit latency = 256
Slowest flit = 94734
Minimum fragmentation = 0
Average fragmentation = 1.87306
Maximum fragmentation = 19
Minimum injected packet rate = 0.015 (at node 53)
Average injected packet rate = 0.0249063
Maximum injected packet rate = 0.033 (at node 43)
Minimum accepted packet rate = 0.018 (at node 46)
Average accepted packet rate = 0.0248906
Maximum accepted packet rate = 0.032 (at node 44)
Minimum injected flit rate = 0.03 (at node 53)
Average injected flit rate = 0.0498047
Maximum injected flit rate = 0.066 (at node 43)
Minimum accepted flit rate = 0.036 (at node 46)
Average accepted flit rate = 0.0497578
Maximum accepted flit rate = 0.0635 (at node 44)
Average injected packet length = 1.99969
Average accepted packet length = 1.99906
Total in-flight flits = 182 (182 measured)
latency change    = 0.032844
throughput change = 0.00212257
latency change    = 0.026654
throughput change = 0.00580939
1
Class 0:
Minimum packet latency = 8
Average packet latency = 56.9954
Maximum packet latency = 281
Minimum network latency = 8
Average network latency = 56.6121
Maximum network latency = 281
Slowest packet = 47377
Minimum flit latency = 7
Average flit latency = 54.8417
Maximum flit latency = 280
Slowest flit = 94755
Minimum fragmentation = 0
Average fragmentation = 1.87621
Maximum fragmentation = 31
Minimum injected packet rate = 0.160667 (at node 53)
Average injected packet rate = 0.175307
Maximum injected packet rate = 0.19 (at node 29)
Minimum accepted packet rate = 0.161 (at node 6)
Average accepted packet rate = 0.174672
Maximum accepted packet rate = 0.192333 (at node 15)
Minimum injected flit rate = 0.321333 (at node 53)
Average injected flit rate = 0.350594
Maximum injected flit rate = 0.379667 (at node 29)
Minimum accepted flit rate = 0.322 (at node 6)
Average accepted flit rate = 0.349453
Maximum accepted flit rate = 0.385333 (at node 15)
Average injected packet length = 1.99988
Average accepted packet length = 2.00063
Total in-flight flits = 1349 (1349 measured)
Class 1:
Minimum packet latency = 8
Average packet latency = 56.6975
Maximum packet latency = 257
Minimum network latency = 8
Average network latency = 56.6135
Maximum network latency = 257
Slowest packet = 47367
Minimum flit latency = 7
Average flit latency = 54.7241
Maximum flit latency = 256
Slowest flit = 94734
Minimum fragmentation = 0
Average fragmentation = 1.85535
Maximum fragmentation = 19
Minimum injected packet rate = 0.0193333 (at node 53)
Average injected packet rate = 0.0250521
Maximum injected packet rate = 0.032 (at node 57)
Minimum accepted packet rate = 0.0173333 (at node 10)
Average accepted packet rate = 0.0249531
Maximum accepted packet rate = 0.03 (at node 16)
Minimum injected flit rate = 0.0386667 (at node 53)
Average injected flit rate = 0.0501042
Maximum injected flit rate = 0.064 (at node 57)
Minimum accepted flit rate = 0.0343333 (at node 10)
Average accepted flit rate = 0.049901
Maximum accepted flit rate = 0.0603333 (at node 16)
Average injected packet length = 2
Average accepted packet length = 1.99979
Total in-flight flits = 214 (214 measured)
latency change    = 0.00422331
throughput change = 0.000603622
latency change    = 0.00820629
throughput change = 0.00287026
Draining all recorded packets ...
Draining remaining packets ...
Time taken is 6380 cycles
====== Traffic class 0 ======
Overall minimum packet latency = 8 (1 samples)
Overall average packet latency = 57.4486 (1 samples)
Overall maximum packet latency = 281 (1 samples)
Overall minimum network latency = 8 (1 samples)
Overall average network latency = 57.0636 (1 samples)
Overall maximum network latency = 281 (1 samples)
Overall minimum flit latency = 6 (1 samples)
Overall average flit latency = 55.1091 (1 samples)
Overall maximum flit latency = 280 (1 samples)
Overall minimum fragmentation = 0 (1 samples)
Overall average fragmentation = 1.87956 (1 samples)
Overall maximum fragmentation = 31 (1 samples)
Overall minimum injected packet rate = 0.160667 (1 samples)
Overall average injected packet rate = 0.175307 (1 samples)
Overall maximum injected packet rate = 0.19 (1 samples)
Overall minimum accepted packet rate = 0.161 (1 samples)
Overall average accepted packet rate = 0.174672 (1 samples)
Overall maximum accepted packet rate = 0.192333 (1 samples)
Overall minimum injected flit rate = 0.321333 (1 samples)
Overall average injected flit rate = 0.350594 (1 samples)
Overall maximum injected flit rate = 0.379667 (1 samples)
Overall minimum accepted flit rate = 0.322 (1 samples)
Overall average accepted flit rate = 0.349453 (1 samples)
Overall maximum accepted flit rate = 0.385333 (1 samples)
Overall average injected packet size = 1.99988 (1 samples)
Overall average accepted packet size = 2.00063 (1 samples)
Overall average hops = 6.27549 (1 samples)
====== Traffic class 1 ======
Overall minimum packet latency = 8 (1 samples)
Overall average packet latency = 57.3921 (1 samples)
Overall maximum packet latency = 257 (1 samples)
Overall minimum network latency = 8 (1 samples)
Overall average network latency = 57.3085 (1 samples)
Overall maximum network latency = 257 (1 samples)
Overall minimum flit latency = 7 (1 samples)
Overall average flit latency = 55.232 (1 samples)
Overall maximum flit latency = 256 (1 samples)
Overall minimum fragmentation = 0 (1 samples)
Overall average fragmentation = 1.86071 (1 samples)
Overall maximum fragmentation = 19 (1 samples)
Overall minimum injected packet rate = 0.0193333 (1 samples)
Overall average injected packet rate = 0.0250521 (1 samples)
Overall maximum injected packet rate = 0.032 (1 samples)
Overall minimum accepted packet rate = 0.0173333 (1 samples)
Overall average accepted packet rate = 0.0249531 (1 samples)
Overall maximum accepted packet rate = 0.03 (1 samples)
Overall minimum injected flit rate = 0.0386667 (1 samples)
Overall average injected flit rate = 0.0501042 (1 samples)
Overall maximum injected flit rate = 0.064 (1 samples)
Overall minimum accepted flit rate = 0.0343333 (1 samples)
Overall average accepted flit rate = 0.049901 (1 samples)
Overall maximum accepted flit rate = 0.0603333 (1 samples)
Overall average injected packet size = 2 (1 samples)
Overall average accepted packet size = 1.99979 (1 samples)
Overall average hops = 6.25717 (1 samples)
Total run time 10.4561
