BEGIN Configuration File: ./examples/project_inputs/config-iq_tp-bitcomp_c1ir-0.05_c0ir-0.23_prio-islip
//
// EVC Router Config File -         
//
// Jason Deng, Mike Wang        
//        

//
// Flow control
//

num_vcs     = 5;
vc_buf_size = 6;

wait_for_tail_credit = 0;

vc_allocator = islip;
sw_allocator = islip;
alloc_iters  = 2;

credit_delay   = 2;
routing_delay  = 1;
vc_alloc_delay = 1;
sw_alloc_delay = 1;
st_final_delay = 1;

input_speedup     = 1;
output_speedup    = 1;
internal_speedup  = 1.0;

//
// Traffic
//

sim_type = latency;

warmup_periods = 3;
sample_period  = 1000;
sim_count = 1;

//
//topoogy
//

topology = mesh;
k  = 8;
n  = 2;

//
// Routing
//

router = iq;
routing_function = dor;

packet_size = 2;
use_read_write = 0;

traffic  = bitcomp;
injection_rate = {0.23,0.05};
injection_rate_uses_flits = 1;

classes = 2;
class_priority = {0,0};
priority = class;

noq = 0;
hold_switch_for_packet = 0;
vc_prioritize_empty = 0;

//
// express virtual channel settings
//

evc = 1;
num_evcs = 1;
evc_prioritized_class = 1;
selective_vc_request = 1;
hold_switch_for_evc_packet = 1;
evc_next_route = 1;

END Configuration File: ./examples/project_inputs/config-iq_tp-bitcomp_c1ir-0.05_c0ir-0.23_prio-islip
0
Class 0:
Minimum packet latency = 18
Average packet latency = 125.062
Maximum packet latency = 601
Minimum network latency = 18
Average network latency = 124.324
Maximum network latency = 601
Slowest packet = 3271
Minimum flit latency = 17
Average flit latency = 122.753
Maximum flit latency = 600
Slowest flit = 6542
Minimum fragmentation = 0
Average fragmentation = 1.22767
Maximum fragmentation = 13
Minimum injected packet rate = 0.064 (at node 9)
Average injected packet rate = 0.106484
Maximum injected packet rate = 0.135 (at node 38)
Minimum accepted packet rate = 0.042 (at node 55)
Average accepted packet rate = 0.0850313
Maximum accepted packet rate = 0.116 (at node 28)
Minimum injected flit rate = 0.128 (at node 9)
Average injected flit rate = 0.212828
Maximum injected flit rate = 0.269 (at node 38)
Minimum accepted flit rate = 0.084 (at node 55)
Average accepted flit rate = 0.170281
Maximum accepted flit rate = 0.232 (at node 28)
Average injected packet length = 1.99868
Average accepted packet length = 2.00257
Total in-flight flits = 2766 (0 measured)
Class 1:
Minimum packet latency = 18
Average packet latency = 126.447
Maximum packet latency = 605
Minimum network latency = 18
Average network latency = 126.277
Maximum network latency = 605
Slowest packet = 3172
Minimum flit latency = 17
Average flit latency = 124.475
Maximum flit latency = 604
Slowest flit = 6344
Minimum fragmentation = 0
Average fragmentation = 1.2711
Maximum fragmentation = 15
Minimum injected packet rate = 0.015 (at node 49)
Average injected packet rate = 0.0255781
Maximum injected packet rate = 0.037 (at node 27)
Minimum accepted packet rate = 0.007 (at node 14)
Average accepted packet rate = 0.01925
Maximum accepted packet rate = 0.035 (at node 36)
Minimum injected flit rate = 0.03 (at node 49)
Average injected flit rate = 0.0511406
Maximum injected flit rate = 0.074 (at node 27)
Minimum accepted flit rate = 0.014 (at node 14)
Average accepted flit rate = 0.0385313
Maximum accepted flit rate = 0.07 (at node 36)
Average injected packet length = 1.99939
Average accepted packet length = 2.00162
Total in-flight flits = 832 (0 measured)
latency change    = 1
throughput change = 1
latency change    = 1
throughput change = 1
0
Class 0:
Minimum packet latency = 18
Average packet latency = 202.568
Maximum packet latency = 1503
Minimum network latency = 18
Average network latency = 188.442
Maximum network latency = 1503
Slowest packet = 4166
Minimum flit latency = 17
Average flit latency = 186.706
Maximum flit latency = 1502
Slowest flit = 8332
Minimum fragmentation = 0
Average fragmentation = 1.2379
Maximum fragmentation = 26
Minimum injected packet rate = 0.0365 (at node 9)
Average injected packet rate = 0.0891719
Maximum injected packet rate = 0.1205 (at node 43)
Minimum accepted packet rate = 0.0295 (at node 55)
Average accepted packet rate = 0.078125
Maximum accepted packet rate = 0.114 (at node 27)
Minimum injected flit rate = 0.073 (at node 9)
Average injected flit rate = 0.178258
Maximum injected flit rate = 0.241 (at node 43)
Minimum accepted flit rate = 0.059 (at node 55)
Average accepted flit rate = 0.15632
Maximum accepted flit rate = 0.228 (at node 27)
Average injected packet length = 1.99904
Average accepted packet length = 2.0009
Total in-flight flits = 2891 (0 measured)
Class 1:
Minimum packet latency = 18
Average packet latency = 215.806
Maximum packet latency = 1431
Minimum network latency = 18
Average network latency = 210.764
Maximum network latency = 1431
Slowest packet = 4306
Minimum flit latency = 17
Average flit latency = 208.779
Maximum flit latency = 1423
Slowest flit = 8612
Minimum fragmentation = 0
Average fragmentation = 1.17229
Maximum fragmentation = 15
Minimum injected packet rate = 0.0115 (at node 49)
Average injected packet rate = 0.0236563
Maximum injected packet rate = 0.0345 (at node 17)
Minimum accepted packet rate = 0.0055 (at node 55)
Average accepted packet rate = 0.019
Maximum accepted packet rate = 0.032 (at node 29)
Minimum injected flit rate = 0.023 (at node 49)
Average injected flit rate = 0.0472734
Maximum injected flit rate = 0.069 (at node 17)
Minimum accepted flit rate = 0.011 (at node 55)
Average accepted flit rate = 0.0380156
Maximum accepted flit rate = 0.064 (at node 29)
Average injected packet length = 1.99835
Average accepted packet length = 2.00082
Total in-flight flits = 1244 (0 measured)
latency change    = 0.382619
throughput change = 0.0893098
latency change    = 0.414069
throughput change = 0.0135635
0
Class 0:
Minimum packet latency = 23
Average packet latency = 499.383
Maximum packet latency = 2260
Minimum network latency = 23
Average network latency = 333.466
Maximum network latency = 2224
Slowest packet = 5361
Minimum flit latency = 20
Average flit latency = 330.944
Maximum flit latency = 2223
Slowest flit = 11938
Minimum fragmentation = 0
Average fragmentation = 1.20221
Maximum fragmentation = 24
Minimum injected packet rate = 0.009 (at node 8)
Average injected packet rate = 0.0618594
Maximum injected packet rate = 0.137 (at node 27)
Minimum accepted packet rate = 0.008 (at node 54)
Average accepted packet rate = 0.0635156
Maximum accepted packet rate = 0.135 (at node 21)
Minimum injected flit rate = 0.018 (at node 9)
Average injected flit rate = 0.123703
Maximum injected flit rate = 0.273 (at node 27)
Minimum accepted flit rate = 0.016 (at node 54)
Average accepted flit rate = 0.127
Maximum accepted flit rate = 0.269 (at node 21)
Average injected packet length = 1.99975
Average accepted packet length = 1.99951
Total in-flight flits = 2683 (0 measured)
Class 1:
Minimum packet latency = 22
Average packet latency = 475.171
Maximum packet latency = 2209
Minimum network latency = 22
Average network latency = 423.856
Maximum network latency = 2205
Slowest packet = 5495
Minimum flit latency = 19
Average flit latency = 421.137
Maximum flit latency = 2204
Slowest flit = 10990
Minimum fragmentation = 0
Average fragmentation = 1.06568
Maximum fragmentation = 13
Minimum injected packet rate = 0.008 (at node 8)
Average injected packet rate = 0.0206875
Maximum injected packet rate = 0.038 (at node 20)
Minimum accepted packet rate = 0.003 (at node 15)
Average accepted packet rate = 0.0190312
Maximum accepted packet rate = 0.032 (at node 43)
Minimum injected flit rate = 0.017 (at node 8)
Average injected flit rate = 0.041375
Maximum injected flit rate = 0.076 (at node 20)
Minimum accepted flit rate = 0.006 (at node 15)
Average accepted flit rate = 0.0380625
Maximum accepted flit rate = 0.064 (at node 43)
Average injected packet length = 2
Average accepted packet length = 2
Total in-flight flits = 1472 (0 measured)
latency change    = 0.594363
throughput change = 0.230869
latency change    = 0.545836
throughput change = 0.00123153
Average latency for class 0 exceeded 500 cycles. Aborting simulation.
Too many sample periods needed to converge
Simulation unstable, ending ...
Total run time 3.85059
