BEGIN Configuration File: ./examples/project_inputs/config-iq_tp-uniform_c1ir-0.05_c0ir-0.23_prio-islip
//
// EVC Router Config File -         
//
// Jason Deng, Mike Wang        
//        

//
// Flow control
//

num_vcs     = 5;
vc_buf_size = 6;

wait_for_tail_credit = 0;

vc_allocator = islip;
sw_allocator = islip;
alloc_iters  = 2;

credit_delay   = 2;
routing_delay  = 1;
vc_alloc_delay = 1;
sw_alloc_delay = 1;
st_final_delay = 1;

input_speedup     = 1;
output_speedup    = 1;
internal_speedup  = 1.0;

//
// Traffic
//

sim_type = latency;

warmup_periods = 3;
sample_period  = 1000;
sim_count = 1;

//
//topoogy
//

topology = mesh;
k  = 8;
n  = 2;

//
// Routing
//

router = iq;
routing_function = dor;

packet_size = 2;
use_read_write = 0;

traffic  = uniform;
injection_rate = {0.23,0.05};
injection_rate_uses_flits = 1;

classes = 2;
class_priority = {0,0};
priority = class;

noq = 0;
hold_switch_for_packet = 0;
vc_prioritize_empty = 0;

//
// express virtual channel settings
//

evc = 1;
num_evcs = 1;
evc_prioritized_class = 1;
selective_vc_request = 1;
hold_switch_for_evc_packet = 1;
evc_next_route = 1;

END Configuration File: ./examples/project_inputs/config-iq_tp-uniform_c1ir-0.05_c0ir-0.23_prio-islip
0
Class 0:
Minimum packet latency = 8
Average packet latency = 37.9882
Maximum packet latency = 101
Minimum network latency = 8
Average network latency = 37.7913
Maximum network latency = 101
Slowest packet = 2810
Minimum flit latency = 6
Average flit latency = 36.2833
Maximum flit latency = 100
Slowest flit = 5621
Minimum fragmentation = 0
Average fragmentation = 0.941219
Maximum fragmentation = 19
Minimum injected packet rate = 0.091 (at node 12)
Average injected packet rate = 0.11275
Maximum injected packet rate = 0.14 (at node 59)
Minimum accepted packet rate = 0.084 (at node 52)
Average accepted packet rate = 0.108188
Maximum accepted packet rate = 0.13 (at node 24)
Minimum injected flit rate = 0.182 (at node 12)
Average injected flit rate = 0.225312
Maximum injected flit rate = 0.28 (at node 59)
Minimum accepted flit rate = 0.168 (at node 52)
Average accepted flit rate = 0.216609
Maximum accepted flit rate = 0.26 (at node 24)
Average injected packet length = 1.99834
Average accepted packet length = 2.00217
Total in-flight flits = 569 (0 measured)
Class 1:
Minimum packet latency = 8
Average packet latency = 38.0566
Maximum packet latency = 110
Minimum network latency = 8
Average network latency = 37.9682
Maximum network latency = 110
Slowest packet = 2825
Minimum flit latency = 7
Average flit latency = 36.3564
Maximum flit latency = 109
Slowest flit = 5650
Minimum fragmentation = 0
Average fragmentation = 0.900826
Maximum fragmentation = 16
Minimum injected packet rate = 0.015 (at node 43)
Average injected packet rate = 0.0255937
Maximum injected packet rate = 0.037 (at node 38)
Minimum accepted packet rate = 0.014 (at node 41)
Average accepted packet rate = 0.0245781
Maximum accepted packet rate = 0.036 (at node 33)
Minimum injected flit rate = 0.03 (at node 43)
Average injected flit rate = 0.0511719
Maximum injected flit rate = 0.074 (at node 38)
Minimum accepted flit rate = 0.029 (at node 41)
Average accepted flit rate = 0.0492344
Maximum accepted flit rate = 0.072 (at node 33)
Average injected packet length = 1.99939
Average accepted packet length = 2.00318
Total in-flight flits = 125 (0 measured)
latency change    = 1
throughput change = 1
latency change    = 1
throughput change = 1
0
Class 0:
Minimum packet latency = 8
Average packet latency = 38.2155
Maximum packet latency = 111
Minimum network latency = 8
Average network latency = 38.0129
Maximum network latency = 111
Slowest packet = 12231
Minimum flit latency = 6
Average flit latency = 36.5007
Maximum flit latency = 110
Slowest flit = 24463
Minimum fragmentation = 0
Average fragmentation = 0.954081
Maximum fragmentation = 19
Minimum injected packet rate = 0.096 (at node 28)
Average injected packet rate = 0.113734
Maximum injected packet rate = 0.1375 (at node 14)
Minimum accepted packet rate = 0.0915 (at node 52)
Average accepted packet rate = 0.111609
Maximum accepted packet rate = 0.129 (at node 39)
Minimum injected flit rate = 0.192 (at node 28)
Average injected flit rate = 0.227398
Maximum injected flit rate = 0.275 (at node 14)
Minimum accepted flit rate = 0.1835 (at node 52)
Average accepted flit rate = 0.223297
Maximum accepted flit rate = 0.258 (at node 39)
Average injected packet length = 1.99938
Average accepted packet length = 2.0007
Total in-flight flits = 534 (0 measured)
Class 1:
Minimum packet latency = 8
Average packet latency = 38.0215
Maximum packet latency = 110
Minimum network latency = 8
Average network latency = 37.9349
Maximum network latency = 110
Slowest packet = 2825
Minimum flit latency = 7
Average flit latency = 36.3131
Maximum flit latency = 109
Slowest flit = 5650
Minimum fragmentation = 0
Average fragmentation = 0.919671
Maximum fragmentation = 16
Minimum injected packet rate = 0.0175 (at node 43)
Average injected packet rate = 0.0252422
Maximum injected packet rate = 0.0345 (at node 38)
Minimum accepted packet rate = 0.0145 (at node 41)
Average accepted packet rate = 0.0247031
Maximum accepted packet rate = 0.0315 (at node 1)
Minimum injected flit rate = 0.035 (at node 43)
Average injected flit rate = 0.0504687
Maximum injected flit rate = 0.069 (at node 38)
Minimum accepted flit rate = 0.029 (at node 41)
Average accepted flit rate = 0.0494297
Maximum accepted flit rate = 0.063 (at node 1)
Average injected packet length = 1.99938
Average accepted packet length = 2.00095
Total in-flight flits = 135 (0 measured)
latency change    = 0.00594782
throughput change = 0.0299489
latency change    = 0.000922489
throughput change = 0.00395132
0
Class 0:
Minimum packet latency = 8
Average packet latency = 38.2605
Maximum packet latency = 102
Minimum network latency = 8
Average network latency = 38.0665
Maximum network latency = 102
Slowest packet = 17197
Minimum flit latency = 6
Average flit latency = 36.5666
Maximum flit latency = 101
Slowest flit = 34395
Minimum fragmentation = 0
Average fragmentation = 0.937904
Maximum fragmentation = 12
Minimum injected packet rate = 0.087 (at node 37)
Average injected packet rate = 0.113703
Maximum injected packet rate = 0.141 (at node 14)
Minimum accepted packet rate = 0.094 (at node 12)
Average accepted packet rate = 0.113734
Maximum accepted packet rate = 0.137 (at node 53)
Minimum injected flit rate = 0.174 (at node 37)
Average injected flit rate = 0.227422
Maximum injected flit rate = 0.282 (at node 14)
Minimum accepted flit rate = 0.188 (at node 12)
Average accepted flit rate = 0.227609
Maximum accepted flit rate = 0.274 (at node 53)
Average injected packet length = 2.00014
Average accepted packet length = 2.00124
Total in-flight flits = 521 (0 measured)
Class 1:
Minimum packet latency = 8
Average packet latency = 38.6438
Maximum packet latency = 95
Minimum network latency = 8
Average network latency = 38.5501
Maximum network latency = 95
Slowest packet = 17132
Minimum flit latency = 7
Average flit latency = 36.9408
Maximum flit latency = 94
Slowest flit = 34265
Minimum fragmentation = 0
Average fragmentation = 0.934066
Maximum fragmentation = 10
Minimum injected packet rate = 0.006 (at node 11)
Average injected packet rate = 0.0239375
Maximum injected packet rate = 0.035 (at node 38)
Minimum accepted packet rate = 0.014 (at node 16)
Average accepted packet rate = 0.0241719
Maximum accepted packet rate = 0.035 (at node 1)
Minimum injected flit rate = 0.013 (at node 11)
Average injected flit rate = 0.0479062
Maximum injected flit rate = 0.07 (at node 38)
Minimum accepted flit rate = 0.028 (at node 16)
Average accepted flit rate = 0.0483125
Maximum accepted flit rate = 0.07 (at node 1)
Average injected packet length = 2.00131
Average accepted packet length = 1.99871
Total in-flight flits = 107 (0 measured)
latency change    = 0.00117666
throughput change = 0.0189469
latency change    = 0.016104
throughput change = 0.0231242
Warmed up ...Time used is 3000 cycles
1
Class 0:
Minimum packet latency = 8
Average packet latency = 38.0238
Maximum packet latency = 98
Minimum network latency = 8
Average network latency = 37.8047
Maximum network latency = 97
Slowest packet = 30286
Minimum flit latency = 7
Average flit latency = 36.4561
Maximum flit latency = 96
Slowest flit = 60572
Minimum fragmentation = 0
Average fragmentation = 0.941757
Maximum fragmentation = 13
Minimum injected packet rate = 0.097 (at node 7)
Average injected packet rate = 0.113531
Maximum injected packet rate = 0.137 (at node 36)
Minimum accepted packet rate = 0.086 (at node 17)
Average accepted packet rate = 0.113406
Maximum accepted packet rate = 0.133 (at node 13)
Minimum injected flit rate = 0.194 (at node 7)
Average injected flit rate = 0.227078
Maximum injected flit rate = 0.274 (at node 36)
Minimum accepted flit rate = 0.172 (at node 17)
Average accepted flit rate = 0.226734
Maximum accepted flit rate = 0.266 (at node 13)
Average injected packet length = 2.00014
Average accepted packet length = 1.99931
Total in-flight flits = 542 (542 measured)
Class 1:
Minimum packet latency = 8
Average packet latency = 38.2713
Maximum packet latency = 91
Minimum network latency = 8
Average network latency = 38.195
Maximum network latency = 91
Slowest packet = 29040
Minimum flit latency = 7
Average flit latency = 36.5683
Maximum flit latency = 89
Slowest flit = 58081
Minimum fragmentation = 0
Average fragmentation = 0.988454
Maximum fragmentation = 10
Minimum injected packet rate = 0.01 (at node 39)
Average injected packet rate = 0.0254844
Maximum injected packet rate = 0.033 (at node 43)
Minimum accepted packet rate = 0.014 (at node 51)
Average accepted packet rate = 0.0252031
Maximum accepted packet rate = 0.034 (at node 37)
Minimum injected flit rate = 0.02 (at node 39)
Average injected flit rate = 0.0509375
Maximum injected flit rate = 0.066 (at node 43)
Minimum accepted flit rate = 0.029 (at node 51)
Average accepted flit rate = 0.0504531
Maximum accepted flit rate = 0.068 (at node 37)
Average injected packet length = 1.99877
Average accepted packet length = 2.00186
Total in-flight flits = 140 (140 measured)
latency change    = 0.00622559
throughput change = 0.00385914
latency change    = 0.00973311
throughput change = 0.042428
1
Class 0:
Minimum packet latency = 8
Average packet latency = 37.969
Maximum packet latency = 101
Minimum network latency = 8
Average network latency = 37.7567
Maximum network latency = 101
Slowest packet = 35076
Minimum flit latency = 7
Average flit latency = 36.3292
Maximum flit latency = 100
Slowest flit = 70153
Minimum fragmentation = 0
Average fragmentation = 0.941906
Maximum fragmentation = 13
Minimum injected packet rate = 0.0975 (at node 10)
Average injected packet rate = 0.113641
Maximum injected packet rate = 0.131 (at node 36)
Minimum accepted packet rate = 0.095 (at node 28)
Average accepted packet rate = 0.113594
Maximum accepted packet rate = 0.129 (at node 22)
Minimum injected flit rate = 0.195 (at node 10)
Average injected flit rate = 0.227281
Maximum injected flit rate = 0.262 (at node 36)
Minimum accepted flit rate = 0.19 (at node 28)
Average accepted flit rate = 0.227133
Maximum accepted flit rate = 0.257 (at node 22)
Average injected packet length = 2
Average accepted packet length = 1.99952
Total in-flight flits = 540 (540 measured)
Class 1:
Minimum packet latency = 8
Average packet latency = 38.0568
Maximum packet latency = 97
Minimum network latency = 8
Average network latency = 37.9749
Maximum network latency = 97
Slowest packet = 40871
Minimum flit latency = 7
Average flit latency = 36.3461
Maximum flit latency = 96
Slowest flit = 81742
Minimum fragmentation = 0
Average fragmentation = 0.966709
Maximum fragmentation = 10
Minimum injected packet rate = 0.0185 (at node 63)
Average injected packet rate = 0.0253203
Maximum injected packet rate = 0.0335 (at node 22)
Minimum accepted packet rate = 0.016 (at node 16)
Average accepted packet rate = 0.0252969
Maximum accepted packet rate = 0.0315 (at node 33)
Minimum injected flit rate = 0.037 (at node 63)
Average injected flit rate = 0.0506406
Maximum injected flit rate = 0.067 (at node 22)
Minimum accepted flit rate = 0.032 (at node 16)
Average accepted flit rate = 0.0506094
Maximum accepted flit rate = 0.063 (at node 33)
Average injected packet length = 2
Average accepted packet length = 2.00062
Total in-flight flits = 111 (111 measured)
latency change    = 0.00144141
throughput change = 0.0017542
latency change    = 0.00563581
throughput change = 0.00308737
1
Class 0:
Minimum packet latency = 8
Average packet latency = 38.3189
Maximum packet latency = 124
Minimum network latency = 8
Average network latency = 38.1019
Maximum network latency = 122
Slowest packet = 44123
Minimum flit latency = 6
Average flit latency = 36.6386
Maximum flit latency = 121
Slowest flit = 88247
Minimum fragmentation = 0
Average fragmentation = 0.957298
Maximum fragmentation = 14
Minimum injected packet rate = 0.103333 (at node 50)
Average injected packet rate = 0.1145
Maximum injected packet rate = 0.125667 (at node 45)
Minimum accepted packet rate = 0.100667 (at node 17)
Average accepted packet rate = 0.114349
Maximum accepted packet rate = 0.127 (at node 22)
Minimum injected flit rate = 0.206667 (at node 50)
Average injected flit rate = 0.228995
Maximum injected flit rate = 0.251333 (at node 45)
Minimum accepted flit rate = 0.201333 (at node 17)
Average accepted flit rate = 0.228693
Maximum accepted flit rate = 0.253667 (at node 22)
Average injected packet length = 1.99995
Average accepted packet length = 1.99995
Total in-flight flits = 580 (580 measured)
Class 1:
Minimum packet latency = 8
Average packet latency = 38.3479
Maximum packet latency = 103
Minimum network latency = 8
Average network latency = 38.2625
Maximum network latency = 103
Slowest packet = 51827
Minimum flit latency = 7
Average flit latency = 36.6263
Maximum flit latency = 102
Slowest flit = 103655
Minimum fragmentation = 0
Average fragmentation = 0.969513
Maximum fragmentation = 11
Minimum injected packet rate = 0.0186667 (at node 41)
Average injected packet rate = 0.0253594
Maximum injected packet rate = 0.0353333 (at node 22)
Minimum accepted packet rate = 0.0193333 (at node 0)
Average accepted packet rate = 0.025224
Maximum accepted packet rate = 0.0306667 (at node 21)
Minimum injected flit rate = 0.0373333 (at node 41)
Average injected flit rate = 0.0507135
Maximum injected flit rate = 0.0706667 (at node 22)
Minimum accepted flit rate = 0.0386667 (at node 0)
Average accepted flit rate = 0.0504583
Maximum accepted flit rate = 0.0613333 (at node 21)
Average injected packet length = 1.99979
Average accepted packet length = 2.00041
Total in-flight flits = 157 (157 measured)
latency change    = 0.00913017
throughput change = 0.00682093
latency change    = 0.00758931
throughput change = 0.00299339
Draining all recorded packets ...
Draining remaining packets ...
Time taken is 6137 cycles
====== Traffic class 0 ======
Overall minimum packet latency = 8 (1 samples)
Overall average packet latency = 38.4278 (1 samples)
Overall maximum packet latency = 124 (1 samples)
Overall minimum network latency = 8 (1 samples)
Overall average network latency = 38.2093 (1 samples)
Overall maximum network latency = 122 (1 samples)
Overall minimum flit latency = 6 (1 samples)
Overall average flit latency = 36.7059 (1 samples)
Overall maximum flit latency = 121 (1 samples)
Overall minimum fragmentation = 0 (1 samples)
Overall average fragmentation = 0.961112 (1 samples)
Overall maximum fragmentation = 14 (1 samples)
Overall minimum injected packet rate = 0.103333 (1 samples)
Overall average injected packet rate = 0.1145 (1 samples)
Overall maximum injected packet rate = 0.125667 (1 samples)
Overall minimum accepted packet rate = 0.100667 (1 samples)
Overall average accepted packet rate = 0.114349 (1 samples)
Overall maximum accepted packet rate = 0.127 (1 samples)
Overall minimum injected flit rate = 0.206667 (1 samples)
Overall average injected flit rate = 0.228995 (1 samples)
Overall maximum injected flit rate = 0.251333 (1 samples)
Overall minimum accepted flit rate = 0.201333 (1 samples)
Overall average accepted flit rate = 0.228693 (1 samples)
Overall maximum accepted flit rate = 0.253667 (1 samples)
Overall average injected packet size = 1.99995 (1 samples)
Overall average accepted packet size = 1.99995 (1 samples)
Overall average hops = 6.2568 (1 samples)
====== Traffic class 1 ======
Overall minimum packet latency = 8 (1 samples)
Overall average packet latency = 38.4851 (1 samples)
Overall maximum packet latency = 103 (1 samples)
Overall minimum network latency = 8 (1 samples)
Overall average network latency = 38.3982 (1 samples)
Overall maximum network latency = 103 (1 samples)
Overall minimum flit latency = 7 (1 samples)
Overall average flit latency = 36.696 (1 samples)
Overall maximum flit latency = 102 (1 samples)
Overall minimum fragmentation = 0 (1 samples)
Overall average fragmentation = 0.971041 (1 samples)
Overall maximum fragmentation = 11 (1 samples)
Overall minimum injected packet rate = 0.0186667 (1 samples)
Overall average injected packet rate = 0.0253594 (1 samples)
Overall maximum injected packet rate = 0.0353333 (1 samples)
Overall minimum accepted packet rate = 0.0193333 (1 samples)
Overall average accepted packet rate = 0.025224 (1 samples)
Overall maximum accepted packet rate = 0.0306667 (1 samples)
Overall minimum injected flit rate = 0.0373333 (1 samples)
Overall average injected flit rate = 0.0507135 (1 samples)
Overall maximum injected flit rate = 0.0706667 (1 samples)
Overall minimum accepted flit rate = 0.0386667 (1 samples)
Overall average accepted flit rate = 0.0504583 (1 samples)
Overall maximum accepted flit rate = 0.0613333 (1 samples)
Overall average injected packet size = 1.99979 (1 samples)
Overall average accepted packet size = 2.00041 (1 samples)
Overall average hops = 6.2594 (1 samples)
Total run time 7.28456
