BEGIN Configuration File: ./examples/project_inputs/config-iq_tp-uniform_c1ir-0.05_c0ir-0.21_prio-islip
//
// EVC Router Config File -         
//
// Jason Deng, Mike Wang        
//        

//
// Flow control
//

num_vcs     = 5;
vc_buf_size = 6;

wait_for_tail_credit = 0;

vc_allocator = islip;
sw_allocator = islip;
alloc_iters  = 2;

credit_delay   = 2;
routing_delay  = 1;
vc_alloc_delay = 1;
sw_alloc_delay = 1;
st_final_delay = 1;

input_speedup     = 1;
output_speedup    = 1;
internal_speedup  = 1.0;

//
// Traffic
//

sim_type = latency;

warmup_periods = 3;
sample_period  = 1000;
sim_count = 1;

//
//topoogy
//

topology = mesh;
k  = 8;
n  = 2;

//
// Routing
//

router = iq;
routing_function = dor;

packet_size = 2;
use_read_write = 0;

traffic  = uniform;
injection_rate = {0.21,0.05};
injection_rate_uses_flits = 1;

classes = 2;
class_priority = {0,0};
priority = class;

noq = 0;
hold_switch_for_packet = 0;
vc_prioritize_empty = 0;

//
// express virtual channel settings
//

evc = 1;
num_evcs = 1;
evc_prioritized_class = 1;
selective_vc_request = 1;
hold_switch_for_evc_packet = 1;
evc_next_route = 1;

END Configuration File: ./examples/project_inputs/config-iq_tp-uniform_c1ir-0.05_c0ir-0.21_prio-islip
0
Class 0:
Minimum packet latency = 8
Average packet latency = 37.6548
Maximum packet latency = 92
Minimum network latency = 8
Average network latency = 37.4503
Maximum network latency = 92
Slowest packet = 3101
Minimum flit latency = 7
Average flit latency = 35.9921
Maximum flit latency = 91
Slowest flit = 6202
Minimum fragmentation = 0
Average fragmentation = 0.84336
Maximum fragmentation = 11
Minimum injected packet rate = 0.082 (at node 19)
Average injected packet rate = 0.104406
Maximum injected packet rate = 0.127 (at node 63)
Minimum accepted packet rate = 0.083 (at node 21)
Average accepted packet rate = 0.10025
Maximum accepted packet rate = 0.12 (at node 55)
Minimum injected flit rate = 0.164 (at node 19)
Average injected flit rate = 0.208672
Maximum injected flit rate = 0.254 (at node 63)
Minimum accepted flit rate = 0.166 (at node 21)
Average accepted flit rate = 0.200813
Maximum accepted flit rate = 0.24 (at node 55)
Average injected packet length = 1.99865
Average accepted packet length = 2.00312
Total in-flight flits = 512 (0 measured)
Class 1:
Minimum packet latency = 8
Average packet latency = 37.8076
Maximum packet latency = 90
Minimum network latency = 8
Average network latency = 37.7325
Maximum network latency = 90
Slowest packet = 6107
Minimum flit latency = 7
Average flit latency = 36.1577
Maximum flit latency = 89
Slowest flit = 12215
Minimum fragmentation = 0
Average fragmentation = 0.83531
Maximum fragmentation = 10
Minimum injected packet rate = 0.012 (at node 13)
Average injected packet rate = 0.0246563
Maximum injected packet rate = 0.035 (at node 3)
Minimum accepted packet rate = 0.015 (at node 22)
Average accepted packet rate = 0.0237188
Maximum accepted packet rate = 0.035 (at node 51)
Minimum injected flit rate = 0.024 (at node 13)
Average injected flit rate = 0.0492969
Maximum injected flit rate = 0.07 (at node 3)
Minimum accepted flit rate = 0.03 (at node 22)
Average accepted flit rate = 0.0474531
Maximum accepted flit rate = 0.07 (at node 51)
Average injected packet length = 1.99937
Average accepted packet length = 2.00066
Total in-flight flits = 119 (0 measured)
latency change    = 1
throughput change = 1
latency change    = 1
throughput change = 1
0
Class 0:
Minimum packet latency = 8
Average packet latency = 37.5784
Maximum packet latency = 94
Minimum network latency = 8
Average network latency = 37.3837
Maximum network latency = 94
Slowest packet = 15757
Minimum flit latency = 7
Average flit latency = 35.9203
Maximum flit latency = 93
Slowest flit = 31514
Minimum fragmentation = 0
Average fragmentation = 0.848222
Maximum fragmentation = 14
Minimum injected packet rate = 0.093 (at node 51)
Average injected packet rate = 0.104586
Maximum injected packet rate = 0.117 (at node 6)
Minimum accepted packet rate = 0.087 (at node 62)
Average accepted packet rate = 0.102586
Maximum accepted packet rate = 0.115 (at node 47)
Minimum injected flit rate = 0.186 (at node 51)
Average injected flit rate = 0.209094
Maximum injected flit rate = 0.234 (at node 6)
Minimum accepted flit rate = 0.174 (at node 62)
Average accepted flit rate = 0.205289
Maximum accepted flit rate = 0.2305 (at node 47)
Average injected packet length = 1.99925
Average accepted packet length = 2.00114
Total in-flight flits = 497 (0 measured)
Class 1:
Minimum packet latency = 8
Average packet latency = 37.6395
Maximum packet latency = 91
Minimum network latency = 8
Average network latency = 37.5658
Maximum network latency = 91
Slowest packet = 12745
Minimum flit latency = 7
Average flit latency = 35.9957
Maximum flit latency = 89
Slowest flit = 12215
Minimum fragmentation = 0
Average fragmentation = 0.83493
Maximum fragmentation = 11
Minimum injected packet rate = 0.0165 (at node 36)
Average injected packet rate = 0.0249375
Maximum injected packet rate = 0.0335 (at node 28)
Minimum accepted packet rate = 0.017 (at node 22)
Average accepted packet rate = 0.0244688
Maximum accepted packet rate = 0.0325 (at node 51)
Minimum injected flit rate = 0.0325 (at node 37)
Average injected flit rate = 0.0498516
Maximum injected flit rate = 0.067 (at node 28)
Minimum accepted flit rate = 0.034 (at node 22)
Average accepted flit rate = 0.0489453
Maximum accepted flit rate = 0.065 (at node 51)
Average injected packet length = 1.99906
Average accepted packet length = 2.00032
Total in-flight flits = 119 (0 measured)
latency change    = 0.00203221
throughput change = 0.0218061
latency change    = 0.00446643
throughput change = 0.0304868
0
Class 0:
Minimum packet latency = 8
Average packet latency = 37.4735
Maximum packet latency = 97
Minimum network latency = 8
Average network latency = 37.2969
Maximum network latency = 97
Slowest packet = 20874
Minimum flit latency = 6
Average flit latency = 35.8414
Maximum flit latency = 96
Slowest flit = 41748
Minimum fragmentation = 0
Average fragmentation = 0.862095
Maximum fragmentation = 19
Minimum injected packet rate = 0.09 (at node 35)
Average injected packet rate = 0.104469
Maximum injected packet rate = 0.13 (at node 52)
Minimum accepted packet rate = 0.084 (at node 63)
Average accepted packet rate = 0.104578
Maximum accepted packet rate = 0.125 (at node 8)
Minimum injected flit rate = 0.18 (at node 35)
Average injected flit rate = 0.208969
Maximum injected flit rate = 0.26 (at node 52)
Minimum accepted flit rate = 0.168 (at node 63)
Average accepted flit rate = 0.209047
Maximum accepted flit rate = 0.249 (at node 8)
Average injected packet length = 2.0003
Average accepted packet length = 1.99895
Total in-flight flits = 490 (0 measured)
Class 1:
Minimum packet latency = 8
Average packet latency = 37.4255
Maximum packet latency = 94
Minimum network latency = 8
Average network latency = 37.3523
Maximum network latency = 94
Slowest packet = 17332
Minimum flit latency = 6
Average flit latency = 35.7805
Maximum flit latency = 92
Slowest flit = 34665
Minimum fragmentation = 0
Average fragmentation = 0.856865
Maximum fragmentation = 15
Minimum injected packet rate = 0.014 (at node 63)
Average injected packet rate = 0.0241406
Maximum injected packet rate = 0.037 (at node 37)
Minimum accepted packet rate = 0.013 (at node 45)
Average accepted packet rate = 0.024125
Maximum accepted packet rate = 0.036 (at node 10)
Minimum injected flit rate = 0.028 (at node 63)
Average injected flit rate = 0.0483125
Maximum injected flit rate = 0.075 (at node 37)
Minimum accepted flit rate = 0.026 (at node 45)
Average accepted flit rate = 0.0482656
Maximum accepted flit rate = 0.072 (at node 10)
Average injected packet length = 2.00129
Average accepted packet length = 2.00065
Total in-flight flits = 120 (0 measured)
latency change    = 0.00279991
throughput change = 0.0179759
latency change    = 0.00571827
throughput change = 0.0140822
Warmed up ...Time used is 3000 cycles
1
Class 0:
Minimum packet latency = 8
Average packet latency = 37.2195
Maximum packet latency = 100
Minimum network latency = 8
Average network latency = 37.0271
Maximum network latency = 100
Slowest packet = 31041
Minimum flit latency = 7
Average flit latency = 35.8351
Maximum flit latency = 99
Slowest flit = 62083
Minimum fragmentation = 0
Average fragmentation = 0.836193
Maximum fragmentation = 12
Minimum injected packet rate = 0.084 (at node 51)
Average injected packet rate = 0.103906
Maximum injected packet rate = 0.118 (at node 6)
Minimum accepted packet rate = 0.079 (at node 17)
Average accepted packet rate = 0.104047
Maximum accepted packet rate = 0.121 (at node 56)
Minimum injected flit rate = 0.168 (at node 51)
Average injected flit rate = 0.207813
Maximum injected flit rate = 0.236 (at node 6)
Minimum accepted flit rate = 0.157 (at node 17)
Average accepted flit rate = 0.208219
Maximum accepted flit rate = 0.241 (at node 56)
Average injected packet length = 2
Average accepted packet length = 2.0012
Total in-flight flits = 464 (464 measured)
Class 1:
Minimum packet latency = 8
Average packet latency = 36.6781
Maximum packet latency = 87
Minimum network latency = 8
Average network latency = 36.6
Maximum network latency = 87
Slowest packet = 26492
Minimum flit latency = 7
Average flit latency = 35.3438
Maximum flit latency = 86
Slowest flit = 52985
Minimum fragmentation = 0
Average fragmentation = 0.829801
Maximum fragmentation = 12
Minimum injected packet rate = 0.013 (at node 7)
Average injected packet rate = 0.0246719
Maximum injected packet rate = 0.036 (at node 40)
Minimum accepted packet rate = 0.015 (at node 5)
Average accepted packet rate = 0.0245469
Maximum accepted packet rate = 0.033 (at node 22)
Minimum injected flit rate = 0.026 (at node 7)
Average injected flit rate = 0.0493281
Maximum injected flit rate = 0.072 (at node 40)
Minimum accepted flit rate = 0.029 (at node 25)
Average accepted flit rate = 0.0490781
Maximum accepted flit rate = 0.066 (at node 22)
Average injected packet length = 1.99937
Average accepted packet length = 1.99936
Total in-flight flits = 139 (139 measured)
latency change    = 0.00682381
throughput change = 0.00397719
latency change    = 0.0203765
throughput change = 0.0165552
1
Class 0:
Minimum packet latency = 8
Average packet latency = 37.5552
Maximum packet latency = 100
Minimum network latency = 8
Average network latency = 37.3613
Maximum network latency = 100
Slowest packet = 31041
Minimum flit latency = 7
Average flit latency = 36.0238
Maximum flit latency = 99
Slowest flit = 62083
Minimum fragmentation = 0
Average fragmentation = 0.855756
Maximum fragmentation = 15
Minimum injected packet rate = 0.09 (at node 42)
Average injected packet rate = 0.104203
Maximum injected packet rate = 0.117 (at node 8)
Minimum accepted packet rate = 0.0895 (at node 17)
Average accepted packet rate = 0.104148
Maximum accepted packet rate = 0.1195 (at node 9)
Minimum injected flit rate = 0.18 (at node 42)
Average injected flit rate = 0.20843
Maximum injected flit rate = 0.234 (at node 8)
Minimum accepted flit rate = 0.179 (at node 17)
Average accepted flit rate = 0.208383
Maximum accepted flit rate = 0.239 (at node 9)
Average injected packet length = 2.00022
Average accepted packet length = 2.00083
Total in-flight flits = 493 (493 measured)
Class 1:
Minimum packet latency = 8
Average packet latency = 37.1465
Maximum packet latency = 87
Minimum network latency = 8
Average network latency = 37.0723
Maximum network latency = 87
Slowest packet = 26492
Minimum flit latency = 7
Average flit latency = 35.6442
Maximum flit latency = 86
Slowest flit = 52985
Minimum fragmentation = 0
Average fragmentation = 0.856078
Maximum fragmentation = 12
Minimum injected packet rate = 0.018 (at node 29)
Average injected packet rate = 0.0244922
Maximum injected packet rate = 0.032 (at node 40)
Minimum accepted packet rate = 0.016 (at node 5)
Average accepted packet rate = 0.0245781
Maximum accepted packet rate = 0.0305 (at node 11)
Minimum injected flit rate = 0.036 (at node 29)
Average injected flit rate = 0.0489687
Maximum injected flit rate = 0.064 (at node 40)
Minimum accepted flit rate = 0.032 (at node 5)
Average accepted flit rate = 0.0491641
Maximum accepted flit rate = 0.061 (at node 11)
Average injected packet length = 1.99936
Average accepted packet length = 2.00032
Total in-flight flits = 97 (97 measured)
latency change    = 0.00893857
throughput change = 0.000787313
latency change    = 0.0126087
throughput change = 0.00174797
1
Class 0:
Minimum packet latency = 8
Average packet latency = 37.5707
Maximum packet latency = 104
Minimum network latency = 8
Average network latency = 37.3746
Maximum network latency = 104
Slowest packet = 47002
Minimum flit latency = 7
Average flit latency = 35.986
Maximum flit latency = 103
Slowest flit = 94005
Minimum fragmentation = 0
Average fragmentation = 0.868295
Maximum fragmentation = 15
Minimum injected packet rate = 0.0903333 (at node 13)
Average injected packet rate = 0.104521
Maximum injected packet rate = 0.113667 (at node 18)
Minimum accepted packet rate = 0.089 (at node 43)
Average accepted packet rate = 0.104313
Maximum accepted packet rate = 0.115 (at node 19)
Minimum injected flit rate = 0.180667 (at node 13)
Average injected flit rate = 0.209057
Maximum injected flit rate = 0.227333 (at node 18)
Minimum accepted flit rate = 0.178333 (at node 43)
Average accepted flit rate = 0.208682
Maximum accepted flit rate = 0.23 (at node 19)
Average injected packet length = 2.00015
Average accepted packet length = 2.00055
Total in-flight flits = 559 (559 measured)
Class 1:
Minimum packet latency = 8
Average packet latency = 37.4701
Maximum packet latency = 94
Minimum network latency = 8
Average network latency = 37.3933
Maximum network latency = 94
Slowest packet = 46138
Minimum flit latency = 6
Average flit latency = 35.909
Maximum flit latency = 93
Slowest flit = 92276
Minimum fragmentation = 0
Average fragmentation = 0.859675
Maximum fragmentation = 12
Minimum injected packet rate = 0.0176667 (at node 47)
Average injected packet rate = 0.0250417
Maximum injected packet rate = 0.032 (at node 44)
Minimum accepted packet rate = 0.018 (at node 23)
Average accepted packet rate = 0.025
Maximum accepted packet rate = 0.03 (at node 57)
Minimum injected flit rate = 0.0353333 (at node 47)
Average injected flit rate = 0.0500781
Maximum injected flit rate = 0.064 (at node 44)
Minimum accepted flit rate = 0.036 (at node 23)
Average accepted flit rate = 0.05
Maximum accepted flit rate = 0.06 (at node 57)
Average injected packet length = 1.99979
Average accepted packet length = 2
Total in-flight flits = 136 (136 measured)
latency change    = 0.000411635
throughput change = 0.0014351
latency change    = 0.0086369
throughput change = 0.0167188
Draining all recorded packets ...
Draining remaining packets ...
Time taken is 6150 cycles
====== Traffic class 0 ======
Overall minimum packet latency = 8 (1 samples)
Overall average packet latency = 37.6985 (1 samples)
Overall maximum packet latency = 104 (1 samples)
Overall minimum network latency = 8 (1 samples)
Overall average network latency = 37.5017 (1 samples)
Overall maximum network latency = 104 (1 samples)
Overall minimum flit latency = 7 (1 samples)
Overall average flit latency = 36.071 (1 samples)
Overall maximum flit latency = 103 (1 samples)
Overall minimum fragmentation = 0 (1 samples)
Overall average fragmentation = 0.870547 (1 samples)
Overall maximum fragmentation = 15 (1 samples)
Overall minimum injected packet rate = 0.0903333 (1 samples)
Overall average injected packet rate = 0.104521 (1 samples)
Overall maximum injected packet rate = 0.113667 (1 samples)
Overall minimum accepted packet rate = 0.089 (1 samples)
Overall average accepted packet rate = 0.104313 (1 samples)
Overall maximum accepted packet rate = 0.115 (1 samples)
Overall minimum injected flit rate = 0.180667 (1 samples)
Overall average injected flit rate = 0.209057 (1 samples)
Overall maximum injected flit rate = 0.227333 (1 samples)
Overall minimum accepted flit rate = 0.178333 (1 samples)
Overall average accepted flit rate = 0.208682 (1 samples)
Overall maximum accepted flit rate = 0.23 (1 samples)
Overall average injected packet size = 2.00015 (1 samples)
Overall average accepted packet size = 2.00055 (1 samples)
Overall average hops = 6.25771 (1 samples)
====== Traffic class 1 ======
Overall minimum packet latency = 8 (1 samples)
Overall average packet latency = 37.6053 (1 samples)
Overall maximum packet latency = 94 (1 samples)
Overall minimum network latency = 8 (1 samples)
Overall average network latency = 37.5286 (1 samples)
Overall maximum network latency = 94 (1 samples)
Overall minimum flit latency = 6 (1 samples)
Overall average flit latency = 35.9894 (1 samples)
Overall maximum flit latency = 93 (1 samples)
Overall minimum fragmentation = 0 (1 samples)
Overall average fragmentation = 0.864837 (1 samples)
Overall maximum fragmentation = 12 (1 samples)
Overall minimum injected packet rate = 0.0176667 (1 samples)
Overall average injected packet rate = 0.0250417 (1 samples)
Overall maximum injected packet rate = 0.032 (1 samples)
Overall minimum accepted packet rate = 0.018 (1 samples)
Overall average accepted packet rate = 0.025 (1 samples)
Overall maximum accepted packet rate = 0.03 (1 samples)
Overall minimum injected flit rate = 0.0353333 (1 samples)
Overall average injected flit rate = 0.0500781 (1 samples)
Overall maximum injected flit rate = 0.064 (1 samples)
Overall minimum accepted flit rate = 0.036 (1 samples)
Overall average accepted flit rate = 0.05 (1 samples)
Overall maximum accepted flit rate = 0.06 (1 samples)
Overall average injected packet size = 1.99979 (1 samples)
Overall average accepted packet size = 2 (1 samples)
Overall average hops = 6.2566 (1 samples)
Total run time 6.6285
