BEGIN Configuration File: ./examples/project_inputs/config-iq_tp-uniform_c1ir-0.05_c0ir-0.07_prio-islip
//
// EVC Router Config File -         
//
// Jason Deng, Mike Wang        
//        

//
// Flow control
//

num_vcs     = 5;
vc_buf_size = 6;

wait_for_tail_credit = 0;

vc_allocator = islip;
sw_allocator = islip;
alloc_iters  = 2;

credit_delay   = 2;
routing_delay  = 1;
vc_alloc_delay = 1;
sw_alloc_delay = 1;
st_final_delay = 1;

input_speedup     = 1;
output_speedup    = 1;
internal_speedup  = 1.0;

//
// Traffic
//

sim_type = latency;

warmup_periods = 3;
sample_period  = 1000;
sim_count = 1;

//
//topoogy
//

topology = mesh;
k  = 8;
n  = 2;

//
// Routing
//

router = iq;
routing_function = dor;

packet_size = 2;
use_read_write = 0;

traffic  = uniform;
injection_rate = {0.07,0.05};
injection_rate_uses_flits = 1;

classes = 2;
class_priority = {0,0};
priority = class;

noq = 0;
hold_switch_for_packet = 0;
vc_prioritize_empty = 0;

//
// express virtual channel settings
//

evc = 1;
num_evcs = 1;
evc_prioritized_class = 1;
selective_vc_request = 1;
hold_switch_for_evc_packet = 1;
evc_next_route = 1;

END Configuration File: ./examples/project_inputs/config-iq_tp-uniform_c1ir-0.05_c0ir-0.07_prio-islip
0
Class 0:
Minimum packet latency = 8
Average packet latency = 35.1872
Maximum packet latency = 79
Minimum network latency = 8
Average network latency = 35.1184
Maximum network latency = 79
Slowest packet = 2687
Minimum flit latency = 7
Average flit latency = 33.9111
Maximum flit latency = 78
Slowest flit = 5375
Minimum fragmentation = 0
Average fragmentation = 0.336694
Maximum fragmentation = 5
Minimum injected packet rate = 0.025 (at node 42)
Average injected packet rate = 0.0368125
Maximum injected packet rate = 0.053 (at node 2)
Minimum accepted packet rate = 0.026 (at node 10)
Average accepted packet rate = 0.0356406
Maximum accepted packet rate = 0.05 (at node 24)
Minimum injected flit rate = 0.05 (at node 42)
Average injected flit rate = 0.0735781
Maximum injected flit rate = 0.106 (at node 2)
Minimum accepted flit rate = 0.052 (at node 10)
Average accepted flit rate = 0.0713594
Maximum accepted flit rate = 0.1 (at node 24)
Average injected packet length = 1.99873
Average accepted packet length = 2.00219
Total in-flight flits = 145 (0 measured)
Class 1:
Minimum packet latency = 8
Average packet latency = 34.743
Maximum packet latency = 77
Minimum network latency = 8
Average network latency = 34.67
Maximum network latency = 77
Slowest packet = 276
Minimum flit latency = 7
Average flit latency = 33.4575
Maximum flit latency = 76
Slowest flit = 553
Minimum fragmentation = 0
Average fragmentation = 0.313253
Maximum fragmentation = 4
Minimum injected packet rate = 0.011 (at node 47)
Average injected packet rate = 0.0241563
Maximum injected packet rate = 0.039 (at node 54)
Minimum accepted packet rate = 0.017 (at node 21)
Average accepted packet rate = 0.0233437
Maximum accepted packet rate = 0.033 (at node 47)
Minimum injected flit rate = 0.022 (at node 47)
Average injected flit rate = 0.0482969
Maximum injected flit rate = 0.078 (at node 54)
Minimum accepted flit rate = 0.034 (at node 21)
Average accepted flit rate = 0.0466875
Maximum accepted flit rate = 0.066 (at node 47)
Average injected packet length = 1.99935
Average accepted packet length = 2
Total in-flight flits = 104 (0 measured)
latency change    = 1
throughput change = 1
latency change    = 1
throughput change = 1
0
Class 0:
Minimum packet latency = 8
Average packet latency = 35.3206
Maximum packet latency = 84
Minimum network latency = 8
Average network latency = 35.2486
Maximum network latency = 84
Slowest packet = 7402
Minimum flit latency = 7
Average flit latency = 34.0389
Maximum flit latency = 83
Slowest flit = 14804
Minimum fragmentation = 0
Average fragmentation = 0.341672
Maximum fragmentation = 6
Minimum injected packet rate = 0.03 (at node 30)
Average injected packet rate = 0.0361797
Maximum injected packet rate = 0.05 (at node 23)
Minimum accepted packet rate = 0.027 (at node 10)
Average accepted packet rate = 0.0356016
Maximum accepted packet rate = 0.0445 (at node 24)
Minimum injected flit rate = 0.06 (at node 30)
Average injected flit rate = 0.0723281
Maximum injected flit rate = 0.0995 (at node 23)
Minimum accepted flit rate = 0.054 (at node 10)
Average accepted flit rate = 0.0712187
Maximum accepted flit rate = 0.089 (at node 24)
Average injected packet length = 1.99914
Average accepted packet length = 2.00044
Total in-flight flits = 146 (0 measured)
Class 1:
Minimum packet latency = 8
Average packet latency = 35.0702
Maximum packet latency = 81
Minimum network latency = 8
Average network latency = 35.0036
Maximum network latency = 80
Slowest packet = 5552
Minimum flit latency = 7
Average flit latency = 33.796
Maximum flit latency = 79
Slowest flit = 11105
Minimum fragmentation = 0
Average fragmentation = 0.31935
Maximum fragmentation = 5
Minimum injected packet rate = 0.016 (at node 47)
Average injected packet rate = 0.0244453
Maximum injected packet rate = 0.033 (at node 2)
Minimum accepted packet rate = 0.018 (at node 21)
Average accepted packet rate = 0.0240234
Maximum accepted packet rate = 0.0295 (at node 12)
Minimum injected flit rate = 0.032 (at node 47)
Average injected flit rate = 0.0488906
Maximum injected flit rate = 0.066 (at node 2)
Minimum accepted flit rate = 0.036 (at node 21)
Average accepted flit rate = 0.0480625
Maximum accepted flit rate = 0.059 (at node 12)
Average injected packet length = 2
Average accepted packet length = 2.00065
Total in-flight flits = 106 (0 measured)
latency change    = 0.00377703
throughput change = 0.00197455
latency change    = 0.0093319
throughput change = 0.0286086
0
Class 0:
Minimum packet latency = 8
Average packet latency = 35.0474
Maximum packet latency = 78
Minimum network latency = 8
Average network latency = 34.9847
Maximum network latency = 78
Slowest packet = 8745
Minimum flit latency = 6
Average flit latency = 33.7862
Maximum flit latency = 77
Slowest flit = 17490
Minimum fragmentation = 0
Average fragmentation = 0.33544
Maximum fragmentation = 6
Minimum injected packet rate = 0.023 (at node 19)
Average injected packet rate = 0.0347656
Maximum injected packet rate = 0.048 (at node 13)
Minimum accepted packet rate = 0.022 (at node 48)
Average accepted packet rate = 0.0346094
Maximum accepted packet rate = 0.051 (at node 0)
Minimum injected flit rate = 0.046 (at node 19)
Average injected flit rate = 0.0695937
Maximum injected flit rate = 0.096 (at node 13)
Minimum accepted flit rate = 0.044 (at node 48)
Average accepted flit rate = 0.0692031
Maximum accepted flit rate = 0.102 (at node 0)
Average injected packet length = 2.0018
Average accepted packet length = 1.99955
Total in-flight flits = 167 (0 measured)
Class 1:
Minimum packet latency = 8
Average packet latency = 34.9073
Maximum packet latency = 78
Minimum network latency = 8
Average network latency = 34.8633
Maximum network latency = 78
Slowest packet = 8910
Minimum flit latency = 6
Average flit latency = 33.6371
Maximum flit latency = 77
Slowest flit = 17820
Minimum fragmentation = 0
Average fragmentation = 0.326518
Maximum fragmentation = 5
Minimum injected packet rate = 0.014 (at node 44)
Average injected packet rate = 0.0244063
Maximum injected packet rate = 0.038 (at node 21)
Minimum accepted packet rate = 0.013 (at node 4)
Average accepted packet rate = 0.0244531
Maximum accepted packet rate = 0.038 (at node 19)
Minimum injected flit rate = 0.028 (at node 44)
Average injected flit rate = 0.0488125
Maximum injected flit rate = 0.076 (at node 21)
Minimum accepted flit rate = 0.026 (at node 4)
Average accepted flit rate = 0.048875
Maximum accepted flit rate = 0.076 (at node 19)
Average injected packet length = 2
Average accepted packet length = 1.99872
Total in-flight flits = 102 (0 measured)
latency change    = 0.0077952
throughput change = 0.0291262
latency change    = 0.00466651
throughput change = 0.016624
Warmed up ...Time used is 3000 cycles
1
Class 0:
Minimum packet latency = 8
Average packet latency = 34.5454
Maximum packet latency = 81
Minimum network latency = 8
Average network latency = 34.4766
Maximum network latency = 81
Slowest packet = 14301
Minimum flit latency = 7
Average flit latency = 33.5734
Maximum flit latency = 80
Slowest flit = 28602
Minimum fragmentation = 0
Average fragmentation = 0.32264
Maximum fragmentation = 6
Minimum injected packet rate = 0.024 (at node 28)
Average injected packet rate = 0.0353438
Maximum injected packet rate = 0.046 (at node 0)
Minimum accepted packet rate = 0.02 (at node 62)
Average accepted packet rate = 0.0354063
Maximum accepted packet rate = 0.053 (at node 29)
Minimum injected flit rate = 0.048 (at node 28)
Average injected flit rate = 0.0706719
Maximum injected flit rate = 0.092 (at node 0)
Minimum accepted flit rate = 0.04 (at node 62)
Average accepted flit rate = 0.0708437
Maximum accepted flit rate = 0.106 (at node 29)
Average injected packet length = 1.99956
Average accepted packet length = 2.00088
Total in-flight flits = 159 (159 measured)
Class 1:
Minimum packet latency = 8
Average packet latency = 34.6078
Maximum packet latency = 79
Minimum network latency = 8
Average network latency = 34.5571
Maximum network latency = 79
Slowest packet = 13919
Minimum flit latency = 7
Average flit latency = 33.5764
Maximum flit latency = 78
Slowest flit = 27838
Minimum fragmentation = 0
Average fragmentation = 0.311938
Maximum fragmentation = 6
Minimum injected packet rate = 0.012 (at node 58)
Average injected packet rate = 0.0253594
Maximum injected packet rate = 0.037 (at node 27)
Minimum accepted packet rate = 0.015 (at node 20)
Average accepted packet rate = 0.0251406
Maximum accepted packet rate = 0.036 (at node 10)
Minimum injected flit rate = 0.024 (at node 58)
Average injected flit rate = 0.0506562
Maximum injected flit rate = 0.074 (at node 27)
Minimum accepted flit rate = 0.03 (at node 20)
Average accepted flit rate = 0.0503437
Maximum accepted flit rate = 0.072 (at node 10)
Average injected packet length = 1.99754
Average accepted packet length = 2.00249
Total in-flight flits = 126 (126 measured)
latency change    = 0.0145326
throughput change = 0.0231584
latency change    = 0.00865462
throughput change = 0.0291744
1
Class 0:
Minimum packet latency = 8
Average packet latency = 35.3339
Maximum packet latency = 81
Minimum network latency = 8
Average network latency = 35.2666
Maximum network latency = 81
Slowest packet = 14301
Minimum flit latency = 7
Average flit latency = 34.1918
Maximum flit latency = 80
Slowest flit = 28602
Minimum fragmentation = 0
Average fragmentation = 0.33723
Maximum fragmentation = 6
Minimum injected packet rate = 0.026 (at node 22)
Average injected packet rate = 0.0352891
Maximum injected packet rate = 0.045 (at node 18)
Minimum accepted packet rate = 0.028 (at node 62)
Average accepted packet rate = 0.0354063
Maximum accepted packet rate = 0.0445 (at node 10)
Minimum injected flit rate = 0.052 (at node 22)
Average injected flit rate = 0.0705547
Maximum injected flit rate = 0.09 (at node 18)
Minimum accepted flit rate = 0.056 (at node 62)
Average accepted flit rate = 0.0708281
Maximum accepted flit rate = 0.089 (at node 10)
Average injected packet length = 1.99934
Average accepted packet length = 2.00044
Total in-flight flits = 135 (135 measured)
Class 1:
Minimum packet latency = 8
Average packet latency = 34.9534
Maximum packet latency = 79
Minimum network latency = 8
Average network latency = 34.9007
Maximum network latency = 79
Slowest packet = 13919
Minimum flit latency = 7
Average flit latency = 33.7913
Maximum flit latency = 78
Slowest flit = 27838
Minimum fragmentation = 0
Average fragmentation = 0.337774
Maximum fragmentation = 6
Minimum injected packet rate = 0.0175 (at node 12)
Average injected packet rate = 0.0250391
Maximum injected packet rate = 0.0315 (at node 50)
Minimum accepted packet rate = 0.016 (at node 20)
Average accepted packet rate = 0.0250313
Maximum accepted packet rate = 0.032 (at node 29)
Minimum injected flit rate = 0.035 (at node 12)
Average injected flit rate = 0.0500781
Maximum injected flit rate = 0.063 (at node 50)
Minimum accepted flit rate = 0.032 (at node 20)
Average accepted flit rate = 0.0500781
Maximum accepted flit rate = 0.064 (at node 29)
Average injected packet length = 2
Average accepted packet length = 2.00062
Total in-flight flits = 102 (102 measured)
latency change    = 0.0223153
throughput change = 0.000220604
latency change    = 0.00988595
throughput change = 0.00530421
1
Class 0:
Minimum packet latency = 8
Average packet latency = 35.2744
Maximum packet latency = 81
Minimum network latency = 8
Average network latency = 35.2067
Maximum network latency = 81
Slowest packet = 14301
Minimum flit latency = 6
Average flit latency = 34.0915
Maximum flit latency = 80
Slowest flit = 28602
Minimum fragmentation = 0
Average fragmentation = 0.335625
Maximum fragmentation = 6
Minimum injected packet rate = 0.0276667 (at node 12)
Average injected packet rate = 0.0353125
Maximum injected packet rate = 0.0436667 (at node 43)
Minimum accepted packet rate = 0.0293333 (at node 56)
Average accepted packet rate = 0.0352917
Maximum accepted packet rate = 0.0423333 (at node 29)
Minimum injected flit rate = 0.0553333 (at node 12)
Average injected flit rate = 0.0706094
Maximum injected flit rate = 0.0873333 (at node 43)
Minimum accepted flit rate = 0.0586667 (at node 56)
Average accepted flit rate = 0.0705937
Maximum accepted flit rate = 0.0846667 (at node 29)
Average injected packet length = 1.99956
Average accepted packet length = 2.0003
Total in-flight flits = 173 (173 measured)
Class 1:
Minimum packet latency = 8
Average packet latency = 35.105
Maximum packet latency = 79
Minimum network latency = 8
Average network latency = 35.0528
Maximum network latency = 79
Slowest packet = 13919
Minimum flit latency = 7
Average flit latency = 33.9036
Maximum flit latency = 78
Slowest flit = 27838
Minimum fragmentation = 0
Average fragmentation = 0.337855
Maximum fragmentation = 6
Minimum injected packet rate = 0.019 (at node 58)
Average injected packet rate = 0.0252917
Maximum injected packet rate = 0.033 (at node 60)
Minimum accepted packet rate = 0.018 (at node 16)
Average accepted packet rate = 0.025224
Maximum accepted packet rate = 0.0333333 (at node 10)
Minimum injected flit rate = 0.038 (at node 58)
Average injected flit rate = 0.0505781
Maximum injected flit rate = 0.066 (at node 60)
Minimum accepted flit rate = 0.036 (at node 16)
Average accepted flit rate = 0.0504479
Maximum accepted flit rate = 0.0666667 (at node 10)
Average injected packet length = 1.99979
Average accepted packet length = 2
Total in-flight flits = 128 (128 measured)
latency change    = 0.00168679
throughput change = 0.00332005
latency change    = 0.00431816
throughput change = 0.00733017
Draining all recorded packets ...
Draining remaining packets ...
Time taken is 6123 cycles
====== Traffic class 0 ======
Overall minimum packet latency = 8 (1 samples)
Overall average packet latency = 35.3581 (1 samples)
Overall maximum packet latency = 81 (1 samples)
Overall minimum network latency = 8 (1 samples)
Overall average network latency = 35.2898 (1 samples)
Overall maximum network latency = 81 (1 samples)
Overall minimum flit latency = 6 (1 samples)
Overall average flit latency = 34.1831 (1 samples)
Overall maximum flit latency = 80 (1 samples)
Overall minimum fragmentation = 0 (1 samples)
Overall average fragmentation = 0.335103 (1 samples)
Overall maximum fragmentation = 6 (1 samples)
Overall minimum injected packet rate = 0.0276667 (1 samples)
Overall average injected packet rate = 0.0353125 (1 samples)
Overall maximum injected packet rate = 0.0436667 (1 samples)
Overall minimum accepted packet rate = 0.0293333 (1 samples)
Overall average accepted packet rate = 0.0352917 (1 samples)
Overall maximum accepted packet rate = 0.0423333 (1 samples)
Overall minimum injected flit rate = 0.0553333 (1 samples)
Overall average injected flit rate = 0.0706094 (1 samples)
Overall maximum injected flit rate = 0.0873333 (1 samples)
Overall minimum accepted flit rate = 0.0586667 (1 samples)
Overall average accepted flit rate = 0.0705937 (1 samples)
Overall maximum accepted flit rate = 0.0846667 (1 samples)
Overall average injected packet size = 1.99956 (1 samples)
Overall average accepted packet size = 2.0003 (1 samples)
Overall average hops = 6.29322 (1 samples)
====== Traffic class 1 ======
Overall minimum packet latency = 8 (1 samples)
Overall average packet latency = 35.2115 (1 samples)
Overall maximum packet latency = 79 (1 samples)
Overall minimum network latency = 8 (1 samples)
Overall average network latency = 35.1588 (1 samples)
Overall maximum network latency = 79 (1 samples)
Overall minimum flit latency = 7 (1 samples)
Overall average flit latency = 34.0233 (1 samples)
Overall maximum flit latency = 78 (1 samples)
Overall minimum fragmentation = 0 (1 samples)
Overall average fragmentation = 0.338344 (1 samples)
Overall maximum fragmentation = 6 (1 samples)
Overall minimum injected packet rate = 0.019 (1 samples)
Overall average injected packet rate = 0.0252917 (1 samples)
Overall maximum injected packet rate = 0.033 (1 samples)
Overall minimum accepted packet rate = 0.018 (1 samples)
Overall average accepted packet rate = 0.025224 (1 samples)
Overall maximum accepted packet rate = 0.0333333 (1 samples)
Overall minimum injected flit rate = 0.038 (1 samples)
Overall average injected flit rate = 0.0505781 (1 samples)
Overall maximum injected flit rate = 0.066 (1 samples)
Overall minimum accepted flit rate = 0.036 (1 samples)
Overall average accepted flit rate = 0.0504479 (1 samples)
Overall maximum accepted flit rate = 0.0666667 (1 samples)
Overall average injected packet size = 1.99979 (1 samples)
Overall average accepted packet size = 2 (1 samples)
Overall average hops = 6.26709 (1 samples)
Total run time 3.65509
