BEGIN Configuration File: ./examples/project_inputs/config-iq_tp-transpose_c1ir-0.05_c0ir-0.23_prio-islip
//
// EVC Router Config File -         
//
// Jason Deng, Mike Wang        
//        

//
// Flow control
//

num_vcs     = 5;
vc_buf_size = 6;

wait_for_tail_credit = 0;

vc_allocator = islip;
sw_allocator = islip;
alloc_iters  = 2;

credit_delay   = 2;
routing_delay  = 1;
vc_alloc_delay = 1;
sw_alloc_delay = 1;
st_final_delay = 1;

input_speedup     = 1;
output_speedup    = 1;
internal_speedup  = 1.0;

//
// Traffic
//

sim_type = latency;

warmup_periods = 3;
sample_period  = 1000;
sim_count = 1;

//
//topoogy
//

topology = mesh;
k  = 8;
n  = 2;

//
// Routing
//

router = iq;
routing_function = dor;

packet_size = 2;
use_read_write = 0;

traffic  = transpose;
injection_rate = {0.23,0.05};
injection_rate_uses_flits = 1;

classes = 2;
class_priority = {0,0};
priority = class;

noq = 0;
hold_switch_for_packet = 0;
vc_prioritize_empty = 0;

//
// express virtual channel settings
//

evc = 1;
num_evcs = 1;
evc_prioritized_class = 1;
selective_vc_request = 1;
hold_switch_for_evc_packet = 1;
evc_next_route = 1;

END Configuration File: ./examples/project_inputs/config-iq_tp-transpose_c1ir-0.05_c0ir-0.23_prio-islip
0
Class 0:
Minimum packet latency = 8
Average packet latency = 85.6841
Maximum packet latency = 785
Minimum network latency = 8
Average network latency = 83.4781
Maximum network latency = 785
Slowest packet = 1548
Minimum flit latency = 6
Average flit latency = 81.8761
Maximum flit latency = 784
Slowest flit = 3096
Minimum fragmentation = 0
Average fragmentation = 0.954332
Maximum fragmentation = 12
Minimum injected packet rate = 0.036 (at node 5)
Average injected packet rate = 0.0958125
Maximum injected packet rate = 0.133 (at node 52)
Minimum accepted packet rate = 0.019 (at node 6)
Average accepted packet rate = 0.0831406
Maximum accepted packet rate = 0.127 (at node 38)
Minimum injected flit rate = 0.072 (at node 5)
Average injected flit rate = 0.191453
Maximum injected flit rate = 0.266 (at node 52)
Minimum accepted flit rate = 0.038 (at node 6)
Average accepted flit rate = 0.166469
Maximum accepted flit rate = 0.256 (at node 38)
Average injected packet length = 1.99821
Average accepted packet length = 2.00226
Total in-flight flits = 1646 (0 measured)
Class 1:
Minimum packet latency = 8
Average packet latency = 91.0133
Maximum packet latency = 750
Minimum network latency = 8
Average network latency = 90.1399
Maximum network latency = 750
Slowest packet = 1629
Minimum flit latency = 7
Average flit latency = 88.383
Maximum flit latency = 749
Slowest flit = 3258
Minimum fragmentation = 0
Average fragmentation = 0.990841
Maximum fragmentation = 12
Minimum injected packet rate = 0.01 (at node 39)
Average injected packet rate = 0.024
Maximum injected packet rate = 0.041 (at node 42)
Minimum accepted packet rate = 0.002 (at node 56)
Average accepted packet rate = 0.0187656
Maximum accepted packet rate = 0.032 (at node 21)
Minimum injected flit rate = 0.02 (at node 39)
Average injected flit rate = 0.0479531
Maximum injected flit rate = 0.082 (at node 42)
Minimum accepted flit rate = 0.004 (at node 56)
Average accepted flit rate = 0.0376094
Maximum accepted flit rate = 0.064 (at node 21)
Average injected packet length = 1.99805
Average accepted packet length = 2.00416
Total in-flight flits = 693 (0 measured)
latency change    = 1
throughput change = 1
latency change    = 1
throughput change = 1
0
Class 0:
Minimum packet latency = 8
Average packet latency = 134.109
Maximum packet latency = 1726
Minimum network latency = 8
Average network latency = 110.531
Maximum network latency = 1726
Slowest packet = 2125
Minimum flit latency = 6
Average flit latency = 108.719
Maximum flit latency = 1725
Slowest flit = 4250
Minimum fragmentation = 0
Average fragmentation = 1.02205
Maximum fragmentation = 17
Minimum injected packet rate = 0.023 (at node 6)
Average injected packet rate = 0.08975
Maximum injected packet rate = 0.128 (at node 52)
Minimum accepted packet rate = 0.014 (at node 7)
Average accepted packet rate = 0.0836016
Maximum accepted packet rate = 0.126 (at node 17)
Minimum injected flit rate = 0.046 (at node 6)
Average injected flit rate = 0.179398
Maximum injected flit rate = 0.2555 (at node 52)
Minimum accepted flit rate = 0.028 (at node 7)
Average accepted flit rate = 0.167313
Maximum accepted flit rate = 0.2525 (at node 17)
Average injected packet length = 1.99887
Average accepted packet length = 2.00131
Total in-flight flits = 1604 (0 measured)
Class 1:
Minimum packet latency = 8
Average packet latency = 160.784
Maximum packet latency = 1674
Minimum network latency = 8
Average network latency = 151.87
Maximum network latency = 1673
Slowest packet = 2146
Minimum flit latency = 7
Average flit latency = 149.683
Maximum flit latency = 1672
Slowest flit = 4292
Minimum fragmentation = 0
Average fragmentation = 1.03757
Maximum fragmentation = 18
Minimum injected packet rate = 0.01 (at node 57)
Average injected packet rate = 0.0236563
Maximum injected packet rate = 0.033 (at node 38)
Minimum accepted packet rate = 0.0035 (at node 7)
Average accepted packet rate = 0.0205859
Maximum accepted packet rate = 0.0325 (at node 52)
Minimum injected flit rate = 0.02 (at node 57)
Average injected flit rate = 0.0472734
Maximum injected flit rate = 0.066 (at node 38)
Minimum accepted flit rate = 0.007 (at node 7)
Average accepted flit rate = 0.0411875
Maximum accepted flit rate = 0.065 (at node 52)
Average injected packet length = 1.99835
Average accepted packet length = 2.00076
Total in-flight flits = 816 (0 measured)
latency change    = 0.361085
throughput change = 0.00504296
latency change    = 0.433942
throughput change = 0.0868741
0
Class 0:
Minimum packet latency = 8
Average packet latency = 265.453
Maximum packet latency = 2550
Minimum network latency = 8
Average network latency = 141.531
Maximum network latency = 2501
Slowest packet = 3061
Minimum flit latency = 7
Average flit latency = 139.573
Maximum flit latency = 2500
Slowest flit = 6816
Minimum fragmentation = 0
Average fragmentation = 1.11136
Maximum fragmentation = 18
Minimum injected packet rate = 0.005 (at node 57)
Average injected packet rate = 0.0829844
Maximum injected packet rate = 0.133 (at node 63)
Minimum accepted packet rate = 0.008 (at node 15)
Average accepted packet rate = 0.0837656
Maximum accepted packet rate = 0.139 (at node 29)
Minimum injected flit rate = 0.01 (at node 57)
Average injected flit rate = 0.166031
Maximum injected flit rate = 0.266 (at node 63)
Minimum accepted flit rate = 0.016 (at node 15)
Average accepted flit rate = 0.167531
Maximum accepted flit rate = 0.278 (at node 29)
Average injected packet length = 2.00075
Average accepted packet length = 2
Total in-flight flits = 1506 (0 measured)
Class 1:
Minimum packet latency = 8
Average packet latency = 292.536
Maximum packet latency = 2495
Minimum network latency = 8
Average network latency = 251.228
Maximum network latency = 2495
Slowest packet = 3633
Minimum flit latency = 7
Average flit latency = 248.537
Maximum flit latency = 2494
Slowest flit = 7266
Minimum fragmentation = 0
Average fragmentation = 1.01977
Maximum fragmentation = 11
Minimum injected packet rate = 0.004 (at node 57)
Average injected packet rate = 0.02175
Maximum injected packet rate = 0.033 (at node 45)
Minimum accepted packet rate = 0.002 (at node 7)
Average accepted packet rate = 0.0213438
Maximum accepted packet rate = 0.033 (at node 45)
Minimum injected flit rate = 0.008 (at node 57)
Average injected flit rate = 0.0434531
Maximum injected flit rate = 0.066 (at node 45)
Minimum accepted flit rate = 0.004 (at node 7)
Average accepted flit rate = 0.0427187
Maximum accepted flit rate = 0.066 (at node 45)
Average injected packet length = 1.99784
Average accepted packet length = 2.00146
Total in-flight flits = 860 (0 measured)
latency change    = 0.494794
throughput change = 0.00130573
latency change    = 0.450377
throughput change = 0.0358449
Average latency for class 1 exceeded 500 cycles. Aborting simulation.
Too many sample periods needed to converge
Simulation unstable, ending ...
Total run time 2.83654
