BEGIN Configuration File: ./examples/project_inputs/config-iq_tp-bitcomp_c1ir-0.05_c0ir-0.07_prio-islip
//
// EVC Router Config File -         
//
// Jason Deng, Mike Wang        
//        

//
// Flow control
//

num_vcs     = 5;
vc_buf_size = 6;

wait_for_tail_credit = 0;

vc_allocator = islip;
sw_allocator = islip;
alloc_iters  = 2;

credit_delay   = 2;
routing_delay  = 1;
vc_alloc_delay = 1;
sw_alloc_delay = 1;
st_final_delay = 1;

input_speedup     = 1;
output_speedup    = 1;
internal_speedup  = 1.0;

//
// Traffic
//

sim_type = latency;

warmup_periods = 3;
sample_period  = 1000;
sim_count = 1;

//
//topoogy
//

topology = mesh;
k  = 8;
n  = 2;

//
// Routing
//

router = iq;
routing_function = dor;

packet_size = 2;
use_read_write = 0;

traffic  = bitcomp;
injection_rate = {0.07,0.05};
injection_rate_uses_flits = 1;

classes = 2;
class_priority = {0,0};
priority = class;

noq = 0;
hold_switch_for_packet = 0;
vc_prioritize_empty = 0;

//
// express virtual channel settings
//

evc = 1;
num_evcs = 1;
evc_prioritized_class = 1;
selective_vc_request = 1;
hold_switch_for_evc_packet = 1;
evc_next_route = 1;

END Configuration File: ./examples/project_inputs/config-iq_tp-bitcomp_c1ir-0.05_c0ir-0.07_prio-islip
0
Class 0:
Minimum packet latency = 18
Average packet latency = 49.6201
Maximum packet latency = 88
Minimum network latency = 18
Average network latency = 49.5503
Maximum network latency = 86
Slowest packet = 42
Minimum flit latency = 16
Average flit latency = 48.3407
Maximum flit latency = 85
Slowest flit = 84
Minimum fragmentation = 0
Average fragmentation = 0.352313
Maximum fragmentation = 7
Minimum injected packet rate = 0.025 (at node 42)
Average injected packet rate = 0.0368125
Maximum injected packet rate = 0.053 (at node 2)
Minimum accepted packet rate = 0.024 (at node 16)
Average accepted packet rate = 0.035125
Maximum accepted packet rate = 0.049 (at node 61)
Minimum injected flit rate = 0.05 (at node 42)
Average injected flit rate = 0.0735781
Maximum injected flit rate = 0.106 (at node 2)
Minimum accepted flit rate = 0.048 (at node 16)
Average accepted flit rate = 0.0702656
Maximum accepted flit rate = 0.098 (at node 61)
Average injected packet length = 1.99873
Average accepted packet length = 2.00044
Total in-flight flits = 215 (0 measured)
Class 1:
Minimum packet latency = 18
Average packet latency = 49.7005
Maximum packet latency = 84
Minimum network latency = 18
Average network latency = 49.627
Maximum network latency = 84
Slowest packet = 2118
Minimum flit latency = 16
Average flit latency = 48.3811
Maximum flit latency = 83
Slowest flit = 4236
Minimum fragmentation = 0
Average fragmentation = 0.381212
Maximum fragmentation = 6
Minimum injected packet rate = 0.011 (at node 47)
Average injected packet rate = 0.0241563
Maximum injected packet rate = 0.039 (at node 54)
Minimum accepted packet rate = 0.011 (at node 16)
Average accepted packet rate = 0.0229531
Maximum accepted packet rate = 0.038 (at node 9)
Minimum injected flit rate = 0.022 (at node 47)
Average injected flit rate = 0.0482969
Maximum injected flit rate = 0.078 (at node 54)
Minimum accepted flit rate = 0.022 (at node 16)
Average accepted flit rate = 0.0459219
Maximum accepted flit rate = 0.076 (at node 9)
Average injected packet length = 1.99935
Average accepted packet length = 2.00068
Total in-flight flits = 153 (0 measured)
latency change    = 1
throughput change = 1
latency change    = 1
throughput change = 1
0
Class 0:
Minimum packet latency = 18
Average packet latency = 49.6306
Maximum packet latency = 89
Minimum network latency = 18
Average network latency = 49.5582
Maximum network latency = 89
Slowest packet = 5482
Minimum flit latency = 16
Average flit latency = 48.3425
Maximum flit latency = 88
Slowest flit = 10965
Minimum fragmentation = 0
Average fragmentation = 0.352616
Maximum fragmentation = 7
Minimum injected packet rate = 0.03 (at node 30)
Average injected packet rate = 0.0361797
Maximum injected packet rate = 0.05 (at node 23)
Minimum accepted packet rate = 0.03 (at node 21)
Average accepted packet rate = 0.0353828
Maximum accepted packet rate = 0.048 (at node 40)
Minimum injected flit rate = 0.06 (at node 30)
Average injected flit rate = 0.0723281
Maximum injected flit rate = 0.0995 (at node 23)
Minimum accepted flit rate = 0.06 (at node 21)
Average accepted flit rate = 0.0707891
Maximum accepted flit rate = 0.096 (at node 40)
Average injected packet length = 1.99914
Average accepted packet length = 2.00066
Total in-flight flits = 201 (0 measured)
Class 1:
Minimum packet latency = 18
Average packet latency = 49.8674
Maximum packet latency = 89
Minimum network latency = 18
Average network latency = 49.8018
Maximum network latency = 88
Slowest packet = 4374
Minimum flit latency = 16
Average flit latency = 48.5617
Maximum flit latency = 87
Slowest flit = 8748
Minimum fragmentation = 0
Average fragmentation = 0.360354
Maximum fragmentation = 7
Minimum injected packet rate = 0.016 (at node 47)
Average injected packet rate = 0.0244453
Maximum injected packet rate = 0.033 (at node 2)
Minimum accepted packet rate = 0.016 (at node 16)
Average accepted packet rate = 0.0238047
Maximum accepted packet rate = 0.032 (at node 61)
Minimum injected flit rate = 0.032 (at node 47)
Average injected flit rate = 0.0488906
Maximum injected flit rate = 0.066 (at node 2)
Minimum accepted flit rate = 0.032 (at node 16)
Average accepted flit rate = 0.047625
Maximum accepted flit rate = 0.064 (at node 61)
Average injected packet length = 2
Average accepted packet length = 2.00066
Total in-flight flits = 162 (0 measured)
latency change    = 0.000211483
throughput change = 0.00739433
latency change    = 0.00334756
throughput change = 0.0357612
0
Class 0:
Minimum packet latency = 18
Average packet latency = 49.93
Maximum packet latency = 93
Minimum network latency = 18
Average network latency = 49.8692
Maximum network latency = 93
Slowest packet = 10421
Minimum flit latency = 16
Average flit latency = 48.6751
Maximum flit latency = 92
Slowest flit = 20842
Minimum fragmentation = 0
Average fragmentation = 0.340754
Maximum fragmentation = 8
Minimum injected packet rate = 0.023 (at node 19)
Average injected packet rate = 0.0347656
Maximum injected packet rate = 0.048 (at node 13)
Minimum accepted packet rate = 0.023 (at node 44)
Average accepted packet rate = 0.0343906
Maximum accepted packet rate = 0.047 (at node 42)
Minimum injected flit rate = 0.046 (at node 19)
Average injected flit rate = 0.0695937
Maximum injected flit rate = 0.096 (at node 13)
Minimum accepted flit rate = 0.046 (at node 44)
Average accepted flit rate = 0.0687813
Maximum accepted flit rate = 0.094 (at node 42)
Average injected packet length = 2.0018
Average accepted packet length = 2
Total in-flight flits = 249 (0 measured)
Class 1:
Minimum packet latency = 18
Average packet latency = 49.501
Maximum packet latency = 95
Minimum network latency = 18
Average network latency = 49.4545
Maximum network latency = 92
Slowest packet = 8814
Minimum flit latency = 17
Average flit latency = 48.2288
Maximum flit latency = 91
Slowest flit = 17629
Minimum fragmentation = 0
Average fragmentation = 0.366645
Maximum fragmentation = 6
Minimum injected packet rate = 0.014 (at node 44)
Average injected packet rate = 0.0244063
Maximum injected packet rate = 0.038 (at node 21)
Minimum accepted packet rate = 0.015 (at node 16)
Average accepted packet rate = 0.0245469
Maximum accepted packet rate = 0.036 (at node 42)
Minimum injected flit rate = 0.028 (at node 44)
Average injected flit rate = 0.0488125
Maximum injected flit rate = 0.076 (at node 21)
Minimum accepted flit rate = 0.03 (at node 16)
Average accepted flit rate = 0.0490937
Maximum accepted flit rate = 0.072 (at node 42)
Average injected packet length = 2
Average accepted packet length = 2
Total in-flight flits = 144 (0 measured)
latency change    = 0.00599697
throughput change = 0.0291913
latency change    = 0.007403
throughput change = 0.0299173
Warmed up ...Time used is 3000 cycles
1
Class 0:
Minimum packet latency = 18
Average packet latency = 49.7384
Maximum packet latency = 93
Minimum network latency = 18
Average network latency = 49.6713
Maximum network latency = 93
Slowest packet = 13018
Minimum flit latency = 16
Average flit latency = 48.7463
Maximum flit latency = 92
Slowest flit = 26036
Minimum fragmentation = 0
Average fragmentation = 0.397114
Maximum fragmentation = 7
Minimum injected packet rate = 0.024 (at node 28)
Average injected packet rate = 0.0353438
Maximum injected packet rate = 0.046 (at node 0)
Minimum accepted packet rate = 0.024 (at node 35)
Average accepted packet rate = 0.0355313
Maximum accepted packet rate = 0.048 (at node 5)
Minimum injected flit rate = 0.048 (at node 28)
Average injected flit rate = 0.0706719
Maximum injected flit rate = 0.092 (at node 0)
Minimum accepted flit rate = 0.048 (at node 35)
Average accepted flit rate = 0.0710625
Maximum accepted flit rate = 0.096 (at node 5)
Average injected packet length = 1.99956
Average accepted packet length = 2
Total in-flight flits = 227 (227 measured)
Class 1:
Minimum packet latency = 18
Average packet latency = 49.3055
Maximum packet latency = 87
Minimum network latency = 18
Average network latency = 49.2541
Maximum network latency = 87
Slowest packet = 13078
Minimum flit latency = 17
Average flit latency = 48.3812
Maximum flit latency = 86
Slowest flit = 26156
Minimum fragmentation = 0
Average fragmentation = 0.388274
Maximum fragmentation = 8
Minimum injected packet rate = 0.012 (at node 58)
Average injected packet rate = 0.0253594
Maximum injected packet rate = 0.037 (at node 27)
Minimum accepted packet rate = 0.012 (at node 5)
Average accepted packet rate = 0.025125
Maximum accepted packet rate = 0.036 (at node 36)
Minimum injected flit rate = 0.024 (at node 58)
Average injected flit rate = 0.0506562
Maximum injected flit rate = 0.074 (at node 27)
Minimum accepted flit rate = 0.024 (at node 5)
Average accepted flit rate = 0.05025
Maximum accepted flit rate = 0.072 (at node 36)
Average injected packet length = 1.99754
Average accepted packet length = 2
Total in-flight flits = 174 (174 measured)
latency change    = 0.00385358
throughput change = 0.032102
latency change    = 0.0039634
throughput change = 0.02301
1
Class 0:
Minimum packet latency = 18
Average packet latency = 49.7177
Maximum packet latency = 93
Minimum network latency = 18
Average network latency = 49.6505
Maximum network latency = 93
Slowest packet = 13018
Minimum flit latency = 16
Average flit latency = 48.5775
Maximum flit latency = 92
Slowest flit = 26036
Minimum fragmentation = 0
Average fragmentation = 0.394933
Maximum fragmentation = 9
Minimum injected packet rate = 0.026 (at node 22)
Average injected packet rate = 0.0352891
Maximum injected packet rate = 0.045 (at node 18)
Minimum accepted packet rate = 0.0265 (at node 41)
Average accepted packet rate = 0.0355234
Maximum accepted packet rate = 0.046 (at node 3)
Minimum injected flit rate = 0.052 (at node 22)
Average injected flit rate = 0.0705547
Maximum injected flit rate = 0.09 (at node 18)
Minimum accepted flit rate = 0.053 (at node 41)
Average accepted flit rate = 0.0710469
Maximum accepted flit rate = 0.092 (at node 3)
Average injected packet length = 1.99934
Average accepted packet length = 2
Total in-flight flits = 189 (189 measured)
Class 1:
Minimum packet latency = 18
Average packet latency = 49.6272
Maximum packet latency = 89
Minimum network latency = 18
Average network latency = 49.5751
Maximum network latency = 88
Slowest packet = 15874
Minimum flit latency = 16
Average flit latency = 48.5174
Maximum flit latency = 87
Slowest flit = 31748
Minimum fragmentation = 0
Average fragmentation = 0.373802
Maximum fragmentation = 8
Minimum injected packet rate = 0.0175 (at node 12)
Average injected packet rate = 0.0250391
Maximum injected packet rate = 0.0315 (at node 50)
Minimum accepted packet rate = 0.017 (at node 51)
Average accepted packet rate = 0.0250234
Maximum accepted packet rate = 0.0315 (at node 13)
Minimum injected flit rate = 0.035 (at node 12)
Average injected flit rate = 0.0500781
Maximum injected flit rate = 0.063 (at node 50)
Minimum accepted flit rate = 0.034 (at node 51)
Average accepted flit rate = 0.0500703
Maximum accepted flit rate = 0.063 (at node 13)
Average injected packet length = 2
Average accepted packet length = 2.00094
Total in-flight flits = 145 (145 measured)
latency change    = 0.000415352
throughput change = 0.000219925
latency change    = 0.00648071
throughput change = 0.0035887
1
Class 0:
Minimum packet latency = 18
Average packet latency = 49.9166
Maximum packet latency = 93
Minimum network latency = 18
Average network latency = 49.8497
Maximum network latency = 93
Slowest packet = 13018
Minimum flit latency = 16
Average flit latency = 48.7241
Maximum flit latency = 92
Slowest flit = 26036
Minimum fragmentation = 0
Average fragmentation = 0.386247
Maximum fragmentation = 9
Minimum injected packet rate = 0.0276667 (at node 12)
Average injected packet rate = 0.0353125
Maximum injected packet rate = 0.0436667 (at node 43)
Minimum accepted packet rate = 0.028 (at node 51)
Average accepted packet rate = 0.0352708
Maximum accepted packet rate = 0.0443333 (at node 13)
Minimum injected flit rate = 0.0553333 (at node 12)
Average injected flit rate = 0.0706094
Maximum injected flit rate = 0.0873333 (at node 43)
Minimum accepted flit rate = 0.056 (at node 51)
Average accepted flit rate = 0.0705521
Maximum accepted flit rate = 0.0886667 (at node 13)
Average injected packet length = 1.99956
Average accepted packet length = 2.0003
Total in-flight flits = 263 (263 measured)
Class 1:
Minimum packet latency = 18
Average packet latency = 49.4726
Maximum packet latency = 89
Minimum network latency = 18
Average network latency = 49.4206
Maximum network latency = 88
Slowest packet = 15874
Minimum flit latency = 16
Average flit latency = 48.3016
Maximum flit latency = 87
Slowest flit = 31748
Minimum fragmentation = 0
Average fragmentation = 0.374502
Maximum fragmentation = 10
Minimum injected packet rate = 0.019 (at node 58)
Average injected packet rate = 0.0252917
Maximum injected packet rate = 0.033 (at node 60)
Minimum accepted packet rate = 0.0193333 (at node 5)
Average accepted packet rate = 0.0252188
Maximum accepted packet rate = 0.033 (at node 3)
Minimum injected flit rate = 0.038 (at node 58)
Average injected flit rate = 0.0505781
Maximum injected flit rate = 0.066 (at node 60)
Minimum accepted flit rate = 0.0386667 (at node 5)
Average accepted flit rate = 0.0504375
Maximum accepted flit rate = 0.066 (at node 3)
Average injected packet length = 1.99979
Average accepted packet length = 2
Total in-flight flits = 172 (172 measured)
latency change    = 0.00398526
throughput change = 0.00701314
latency change    = 0.00312336
throughput change = 0.00728005
Draining all recorded packets ...
Draining remaining packets ...
Time taken is 6156 cycles
====== Traffic class 0 ======
Overall minimum packet latency = 18 (1 samples)
Overall average packet latency = 50.0088 (1 samples)
Overall maximum packet latency = 93 (1 samples)
Overall minimum network latency = 18 (1 samples)
Overall average network latency = 49.9406 (1 samples)
Overall maximum network latency = 93 (1 samples)
Overall minimum flit latency = 16 (1 samples)
Overall average flit latency = 48.82 (1 samples)
Overall maximum flit latency = 92 (1 samples)
Overall minimum fragmentation = 0 (1 samples)
Overall average fragmentation = 0.383776 (1 samples)
Overall maximum fragmentation = 9 (1 samples)
Overall minimum injected packet rate = 0.0276667 (1 samples)
Overall average injected packet rate = 0.0353125 (1 samples)
Overall maximum injected packet rate = 0.0436667 (1 samples)
Overall minimum accepted packet rate = 0.028 (1 samples)
Overall average accepted packet rate = 0.0352708 (1 samples)
Overall maximum accepted packet rate = 0.0443333 (1 samples)
Overall minimum injected flit rate = 0.0553333 (1 samples)
Overall average injected flit rate = 0.0706094 (1 samples)
Overall maximum injected flit rate = 0.0873333 (1 samples)
Overall minimum accepted flit rate = 0.056 (1 samples)
Overall average accepted flit rate = 0.0705521 (1 samples)
Overall maximum accepted flit rate = 0.0886667 (1 samples)
Overall average injected packet size = 1.99956 (1 samples)
Overall average accepted packet size = 2.0003 (1 samples)
Overall average hops = 9.03746 (1 samples)
====== Traffic class 1 ======
Overall minimum packet latency = 18 (1 samples)
Overall average packet latency = 49.5813 (1 samples)
Overall maximum packet latency = 89 (1 samples)
Overall minimum network latency = 18 (1 samples)
Overall average network latency = 49.5286 (1 samples)
Overall maximum network latency = 88 (1 samples)
Overall minimum flit latency = 16 (1 samples)
Overall average flit latency = 48.3704 (1 samples)
Overall maximum flit latency = 87 (1 samples)
Overall minimum fragmentation = 0 (1 samples)
Overall average fragmentation = 0.375412 (1 samples)
Overall maximum fragmentation = 10 (1 samples)
Overall minimum injected packet rate = 0.019 (1 samples)
Overall average injected packet rate = 0.0252917 (1 samples)
Overall maximum injected packet rate = 0.033 (1 samples)
Overall minimum accepted packet rate = 0.0193333 (1 samples)
Overall average accepted packet rate = 0.0252188 (1 samples)
Overall maximum accepted packet rate = 0.033 (1 samples)
Overall minimum injected flit rate = 0.038 (1 samples)
Overall average injected flit rate = 0.0505781 (1 samples)
Overall maximum injected flit rate = 0.066 (1 samples)
Overall minimum accepted flit rate = 0.0386667 (1 samples)
Overall average accepted flit rate = 0.0504375 (1 samples)
Overall maximum accepted flit rate = 0.066 (1 samples)
Overall average injected packet size = 1.99979 (1 samples)
Overall average accepted packet size = 2 (1 samples)
Overall average hops = 8.95881 (1 samples)
Total run time 4.67807
