BEGIN Configuration File: ./examples/project_inputs/config-iq_tp-bitcomp_c1ir-0.05_c0ir-0.09_prio-islip
//
// EVC Router Config File -         
//
// Jason Deng, Mike Wang        
//        

//
// Flow control
//

num_vcs     = 5;
vc_buf_size = 6;

wait_for_tail_credit = 0;

vc_allocator = islip;
sw_allocator = islip;
alloc_iters  = 2;

credit_delay   = 2;
routing_delay  = 1;
vc_alloc_delay = 1;
sw_alloc_delay = 1;
st_final_delay = 1;

input_speedup     = 1;
output_speedup    = 1;
internal_speedup  = 1.0;

//
// Traffic
//

sim_type = latency;

warmup_periods = 3;
sample_period  = 1000;
sim_count = 1;

//
//topoogy
//

topology = mesh;
k  = 8;
n  = 2;

//
// Routing
//

router = iq;
routing_function = dor;

packet_size = 2;
use_read_write = 0;

traffic  = bitcomp;
injection_rate = {0.09,0.05};
injection_rate_uses_flits = 1;

classes = 2;
class_priority = {0,0};
priority = class;

noq = 0;
hold_switch_for_packet = 0;
vc_prioritize_empty = 0;

//
// express virtual channel settings
//

evc = 1;
num_evcs = 1;
evc_prioritized_class = 1;
selective_vc_request = 1;
hold_switch_for_evc_packet = 1;
evc_next_route = 1;

END Configuration File: ./examples/project_inputs/config-iq_tp-bitcomp_c1ir-0.05_c0ir-0.09_prio-islip
0
Class 0:
Minimum packet latency = 18
Average packet latency = 50.1003
Maximum packet latency = 95
Minimum network latency = 18
Average network latency = 50.0181
Maximum network latency = 94
Slowest packet = 343
Minimum flit latency = 17
Average flit latency = 48.7653
Maximum flit latency = 93
Slowest flit = 686
Minimum fragmentation = 0
Average fragmentation = 0.437846
Maximum fragmentation = 10
Minimum injected packet rate = 0.029 (at node 40)
Average injected packet rate = 0.0444063
Maximum injected packet rate = 0.061 (at node 50)
Minimum accepted packet rate = 0.027 (at node 23)
Average accepted packet rate = 0.0423594
Maximum accepted packet rate = 0.06 (at node 13)
Minimum injected flit rate = 0.058 (at node 40)
Average injected flit rate = 0.0887813
Maximum injected flit rate = 0.122 (at node 50)
Minimum accepted flit rate = 0.054 (at node 23)
Average accepted flit rate = 0.08475
Maximum accepted flit rate = 0.12 (at node 13)
Average injected packet length = 1.9993
Average accepted packet length = 2.00074
Total in-flight flits = 260 (0 measured)
Class 1:
Minimum packet latency = 18
Average packet latency = 50.5951
Maximum packet latency = 96
Minimum network latency = 18
Average network latency = 50.5456
Maximum network latency = 96
Slowest packet = 1388
Minimum flit latency = 16
Average flit latency = 49.2444
Maximum flit latency = 95
Slowest flit = 2776
Minimum fragmentation = 0
Average fragmentation = 0.460797
Maximum fragmentation = 9
Minimum injected packet rate = 0.016 (at node 39)
Average injected packet rate = 0.0255625
Maximum injected packet rate = 0.035 (at node 17)
Minimum accepted packet rate = 0.014 (at node 17)
Average accepted packet rate = 0.0243125
Maximum accepted packet rate = 0.034 (at node 46)
Minimum injected flit rate = 0.032 (at node 39)
Average injected flit rate = 0.0511094
Maximum injected flit rate = 0.07 (at node 17)
Minimum accepted flit rate = 0.028 (at node 17)
Average accepted flit rate = 0.0486562
Maximum accepted flit rate = 0.068 (at node 46)
Average injected packet length = 1.99939
Average accepted packet length = 2.00129
Total in-flight flits = 158 (0 measured)
latency change    = 1
throughput change = 1
latency change    = 1
throughput change = 1
0
Class 0:
Minimum packet latency = 18
Average packet latency = 50.1966
Maximum packet latency = 99
Minimum network latency = 18
Average network latency = 50.1187
Maximum network latency = 99
Slowest packet = 5698
Minimum flit latency = 16
Average flit latency = 48.8664
Maximum flit latency = 98
Slowest flit = 11396
Minimum fragmentation = 0
Average fragmentation = 0.436934
Maximum fragmentation = 10
Minimum injected packet rate = 0.0305 (at node 40)
Average injected packet rate = 0.0442891
Maximum injected packet rate = 0.0565 (at node 50)
Minimum accepted packet rate = 0.029 (at node 23)
Average accepted packet rate = 0.0431094
Maximum accepted packet rate = 0.055 (at node 13)
Minimum injected flit rate = 0.061 (at node 40)
Average injected flit rate = 0.0885391
Maximum injected flit rate = 0.113 (at node 50)
Minimum accepted flit rate = 0.058 (at node 23)
Average accepted flit rate = 0.0862344
Maximum accepted flit rate = 0.11 (at node 13)
Average injected packet length = 1.99912
Average accepted packet length = 2.00036
Total in-flight flits = 300 (0 measured)
Class 1:
Minimum packet latency = 18
Average packet latency = 50.791
Maximum packet latency = 96
Minimum network latency = 18
Average network latency = 50.7364
Maximum network latency = 96
Slowest packet = 1388
Minimum flit latency = 16
Average flit latency = 49.4497
Maximum flit latency = 95
Slowest flit = 2776
Minimum fragmentation = 0
Average fragmentation = 0.450267
Maximum fragmentation = 9
Minimum injected packet rate = 0.0175 (at node 46)
Average injected packet rate = 0.0254766
Maximum injected packet rate = 0.033 (at node 21)
Minimum accepted packet rate = 0.0165 (at node 17)
Average accepted packet rate = 0.0248984
Maximum accepted packet rate = 0.033 (at node 42)
Minimum injected flit rate = 0.035 (at node 46)
Average injected flit rate = 0.0509375
Maximum injected flit rate = 0.066 (at node 21)
Minimum accepted flit rate = 0.033 (at node 17)
Average accepted flit rate = 0.0498125
Maximum accepted flit rate = 0.066 (at node 42)
Average injected packet length = 1.99939
Average accepted packet length = 2.00063
Total in-flight flits = 146 (0 measured)
latency change    = 0.0019184
throughput change = 0.0172133
latency change    = 0.00385718
throughput change = 0.023212
0
Class 0:
Minimum packet latency = 18
Average packet latency = 50.6329
Maximum packet latency = 94
Minimum network latency = 18
Average network latency = 50.5524
Maximum network latency = 94
Slowest packet = 11594
Minimum flit latency = 17
Average flit latency = 49.2915
Maximum flit latency = 93
Slowest flit = 23188
Minimum fragmentation = 0
Average fragmentation = 0.439268
Maximum fragmentation = 9
Minimum injected packet rate = 0.03 (at node 52)
Average injected packet rate = 0.0450625
Maximum injected packet rate = 0.061 (at node 0)
Minimum accepted packet rate = 0.029 (at node 14)
Average accepted packet rate = 0.0452813
Maximum accepted packet rate = 0.059 (at node 63)
Minimum injected flit rate = 0.06 (at node 52)
Average injected flit rate = 0.0901719
Maximum injected flit rate = 0.121 (at node 0)
Minimum accepted flit rate = 0.058 (at node 14)
Average accepted flit rate = 0.0905781
Maximum accepted flit rate = 0.118 (at node 63)
Average injected packet length = 2.00104
Average accepted packet length = 2.00035
Total in-flight flits = 271 (0 measured)
Class 1:
Minimum packet latency = 18
Average packet latency = 50.9954
Maximum packet latency = 95
Minimum network latency = 18
Average network latency = 50.9388
Maximum network latency = 95
Slowest packet = 11221
Minimum flit latency = 17
Average flit latency = 49.6415
Maximum flit latency = 94
Slowest flit = 22442
Minimum fragmentation = 0
Average fragmentation = 0.459987
Maximum fragmentation = 9
Minimum injected packet rate = 0.014 (at node 0)
Average injected packet rate = 0.0240781
Maximum injected packet rate = 0.035 (at node 10)
Minimum accepted packet rate = 0.015 (at node 12)
Average accepted packet rate = 0.0240156
Maximum accepted packet rate = 0.035 (at node 53)
Minimum injected flit rate = 0.028 (at node 0)
Average injected flit rate = 0.0481875
Maximum injected flit rate = 0.07 (at node 10)
Minimum accepted flit rate = 0.03 (at node 12)
Average accepted flit rate = 0.0480312
Maximum accepted flit rate = 0.07 (at node 53)
Average injected packet length = 2.0013
Average accepted packet length = 2
Total in-flight flits = 154 (0 measured)
latency change    = 0.00861538
throughput change = 0.0479558
latency change    = 0.00400859
throughput change = 0.0370852
Warmed up ...Time used is 3000 cycles
1
Class 0:
Minimum packet latency = 18
Average packet latency = 50.2412
Maximum packet latency = 90
Minimum network latency = 18
Average network latency = 50.1617
Maximum network latency = 90
Slowest packet = 14249
Minimum flit latency = 17
Average flit latency = 49.1364
Maximum flit latency = 89
Slowest flit = 28498
Minimum fragmentation = 0
Average fragmentation = 0.420463
Maximum fragmentation = 9
Minimum injected packet rate = 0.032 (at node 8)
Average injected packet rate = 0.0439844
Maximum injected packet rate = 0.058 (at node 13)
Minimum accepted packet rate = 0.032 (at node 55)
Average accepted packet rate = 0.0439844
Maximum accepted packet rate = 0.061 (at node 50)
Minimum injected flit rate = 0.064 (at node 8)
Average injected flit rate = 0.0879375
Maximum injected flit rate = 0.115 (at node 13)
Minimum accepted flit rate = 0.064 (at node 55)
Average accepted flit rate = 0.0879844
Maximum accepted flit rate = 0.122 (at node 50)
Average injected packet length = 1.99929
Average accepted packet length = 2.00036
Total in-flight flits = 270 (270 measured)
Class 1:
Minimum packet latency = 18
Average packet latency = 50.5696
Maximum packet latency = 90
Minimum network latency = 18
Average network latency = 50.5059
Maximum network latency = 90
Slowest packet = 15024
Minimum flit latency = 16
Average flit latency = 49.3812
Maximum flit latency = 89
Slowest flit = 30048
Minimum fragmentation = 0
Average fragmentation = 0.432415
Maximum fragmentation = 6
Minimum injected packet rate = 0.016 (at node 12)
Average injected packet rate = 0.0254062
Maximum injected packet rate = 0.04 (at node 31)
Minimum accepted packet rate = 0.016 (at node 1)
Average accepted packet rate = 0.0250313
Maximum accepted packet rate = 0.042 (at node 32)
Minimum injected flit rate = 0.032 (at node 12)
Average injected flit rate = 0.0507656
Maximum injected flit rate = 0.08 (at node 31)
Minimum accepted flit rate = 0.032 (at node 1)
Average accepted flit rate = 0.050125
Maximum accepted flit rate = 0.084 (at node 32)
Average injected packet length = 1.99815
Average accepted packet length = 2.0025
Total in-flight flits = 198 (198 measured)
latency change    = 0.0077949
throughput change = 0.0294797
latency change    = 0.0084219
throughput change = 0.0417706
1
Class 0:
Minimum packet latency = 18
Average packet latency = 50.3836
Maximum packet latency = 99
Minimum network latency = 18
Average network latency = 50.3103
Maximum network latency = 99
Slowest packet = 19673
Minimum flit latency = 17
Average flit latency = 49.1659
Maximum flit latency = 98
Slowest flit = 39346
Minimum fragmentation = 0
Average fragmentation = 0.436701
Maximum fragmentation = 9
Minimum injected packet rate = 0.0365 (at node 10)
Average injected packet rate = 0.0443672
Maximum injected packet rate = 0.0535 (at node 13)
Minimum accepted packet rate = 0.0365 (at node 53)
Average accepted packet rate = 0.0444531
Maximum accepted packet rate = 0.0545 (at node 50)
Minimum injected flit rate = 0.073 (at node 10)
Average injected flit rate = 0.08875
Maximum injected flit rate = 0.107 (at node 13)
Minimum accepted flit rate = 0.073 (at node 53)
Average accepted flit rate = 0.0889219
Maximum accepted flit rate = 0.109 (at node 50)
Average injected packet length = 2.00035
Average accepted packet length = 2.00035
Total in-flight flits = 247 (247 measured)
Class 1:
Minimum packet latency = 18
Average packet latency = 50.4536
Maximum packet latency = 91
Minimum network latency = 18
Average network latency = 50.3921
Maximum network latency = 91
Slowest packet = 19378
Minimum flit latency = 16
Average flit latency = 49.2082
Maximum flit latency = 90
Slowest flit = 38756
Minimum fragmentation = 0
Average fragmentation = 0.428116
Maximum fragmentation = 9
Minimum injected packet rate = 0.0165 (at node 3)
Average injected packet rate = 0.0250703
Maximum injected packet rate = 0.033 (at node 31)
Minimum accepted packet rate = 0.017 (at node 60)
Average accepted packet rate = 0.0251172
Maximum accepted packet rate = 0.0345 (at node 32)
Minimum injected flit rate = 0.033 (at node 3)
Average injected flit rate = 0.050125
Maximum injected flit rate = 0.066 (at node 31)
Minimum accepted flit rate = 0.0345 (at node 60)
Average accepted flit rate = 0.0502344
Maximum accepted flit rate = 0.069 (at node 32)
Average injected packet length = 1.99938
Average accepted packet length = 2
Total in-flight flits = 142 (142 measured)
latency change    = 0.00282536
throughput change = 0.010543
latency change    = 0.00229787
throughput change = 0.00217729
1
Class 0:
Minimum packet latency = 18
Average packet latency = 50.3683
Maximum packet latency = 99
Minimum network latency = 18
Average network latency = 50.2907
Maximum network latency = 99
Slowest packet = 19673
Minimum flit latency = 17
Average flit latency = 49.1128
Maximum flit latency = 98
Slowest flit = 39346
Minimum fragmentation = 0
Average fragmentation = 0.429381
Maximum fragmentation = 9
Minimum injected packet rate = 0.0396667 (at node 3)
Average injected packet rate = 0.0449792
Maximum injected packet rate = 0.0526667 (at node 60)
Minimum accepted packet rate = 0.0393333 (at node 18)
Average accepted packet rate = 0.0448177
Maximum accepted packet rate = 0.0523333 (at node 14)
Minimum injected flit rate = 0.0793333 (at node 3)
Average injected flit rate = 0.0899479
Maximum injected flit rate = 0.105333 (at node 60)
Minimum accepted flit rate = 0.0786667 (at node 18)
Average accepted flit rate = 0.0896302
Maximum accepted flit rate = 0.104667 (at node 14)
Average injected packet length = 1.99977
Average accepted packet length = 1.99988
Total in-flight flits = 334 (334 measured)
Class 1:
Minimum packet latency = 18
Average packet latency = 50.424
Maximum packet latency = 91
Minimum network latency = 18
Average network latency = 50.3624
Maximum network latency = 91
Slowest packet = 19378
Minimum flit latency = 16
Average flit latency = 49.1396
Maximum flit latency = 90
Slowest flit = 38756
Minimum fragmentation = 0
Average fragmentation = 0.434149
Maximum fragmentation = 9
Minimum injected packet rate = 0.02 (at node 3)
Average injected packet rate = 0.0251563
Maximum injected packet rate = 0.031 (at node 60)
Minimum accepted packet rate = 0.02 (at node 8)
Average accepted packet rate = 0.0250833
Maximum accepted packet rate = 0.0303333 (at node 3)
Minimum injected flit rate = 0.04 (at node 3)
Average injected flit rate = 0.0503073
Maximum injected flit rate = 0.062 (at node 60)
Minimum accepted flit rate = 0.04 (at node 8)
Average accepted flit rate = 0.0501667
Maximum accepted flit rate = 0.0606667 (at node 3)
Average injected packet length = 1.99979
Average accepted packet length = 2
Total in-flight flits = 182 (182 measured)
latency change    = 0.000302742
throughput change = 0.00790284
latency change    = 0.000587013
throughput change = 0.00134967
Draining all recorded packets ...
Draining remaining packets ...
Time taken is 6148 cycles
====== Traffic class 0 ======
Overall minimum packet latency = 18 (1 samples)
Overall average packet latency = 50.4661 (1 samples)
Overall maximum packet latency = 99 (1 samples)
Overall minimum network latency = 18 (1 samples)
Overall average network latency = 50.3885 (1 samples)
Overall maximum network latency = 99 (1 samples)
Overall minimum flit latency = 17 (1 samples)
Overall average flit latency = 49.1956 (1 samples)
Overall maximum flit latency = 98 (1 samples)
Overall minimum fragmentation = 0 (1 samples)
Overall average fragmentation = 0.430292 (1 samples)
Overall maximum fragmentation = 9 (1 samples)
Overall minimum injected packet rate = 0.0396667 (1 samples)
Overall average injected packet rate = 0.0449792 (1 samples)
Overall maximum injected packet rate = 0.0526667 (1 samples)
Overall minimum accepted packet rate = 0.0393333 (1 samples)
Overall average accepted packet rate = 0.0448177 (1 samples)
Overall maximum accepted packet rate = 0.0523333 (1 samples)
Overall minimum injected flit rate = 0.0793333 (1 samples)
Overall average injected flit rate = 0.0899479 (1 samples)
Overall maximum injected flit rate = 0.105333 (1 samples)
Overall minimum accepted flit rate = 0.0786667 (1 samples)
Overall average accepted flit rate = 0.0896302 (1 samples)
Overall maximum accepted flit rate = 0.104667 (1 samples)
Overall average injected packet size = 1.99977 (1 samples)
Overall average accepted packet size = 1.99988 (1 samples)
Overall average hops = 9.00556 (1 samples)
====== Traffic class 1 ======
Overall minimum packet latency = 18 (1 samples)
Overall average packet latency = 50.5816 (1 samples)
Overall maximum packet latency = 91 (1 samples)
Overall minimum network latency = 18 (1 samples)
Overall average network latency = 50.5203 (1 samples)
Overall maximum network latency = 91 (1 samples)
Overall minimum flit latency = 16 (1 samples)
Overall average flit latency = 49.2676 (1 samples)
Overall maximum flit latency = 90 (1 samples)
Overall minimum fragmentation = 0 (1 samples)
Overall average fragmentation = 0.432919 (1 samples)
Overall maximum fragmentation = 9 (1 samples)
Overall minimum injected packet rate = 0.02 (1 samples)
Overall average injected packet rate = 0.0251563 (1 samples)
Overall maximum injected packet rate = 0.031 (1 samples)
Overall minimum accepted packet rate = 0.02 (1 samples)
Overall average accepted packet rate = 0.0250833 (1 samples)
Overall maximum accepted packet rate = 0.0303333 (1 samples)
Overall minimum injected flit rate = 0.04 (1 samples)
Overall average injected flit rate = 0.0503073 (1 samples)
Overall maximum injected flit rate = 0.062 (1 samples)
Overall minimum accepted flit rate = 0.04 (1 samples)
Overall average accepted flit rate = 0.0501667 (1 samples)
Overall maximum accepted flit rate = 0.0606667 (1 samples)
Overall average injected packet size = 1.99979 (1 samples)
Overall average accepted packet size = 2 (1 samples)
Overall average hops = 9.02857 (1 samples)
Total run time 5.24034
