BEGIN Configuration File: ./examples/project_inputs/config-iq_tp-bitcomp_c1ir-0.05_c0ir-0.35_prio-islip
//
// EVC Router Config File -         
//
// Jason Deng, Mike Wang        
//        

//
// Flow control
//

num_vcs     = 5;
vc_buf_size = 6;

wait_for_tail_credit = 0;

vc_allocator = islip;
sw_allocator = islip;
alloc_iters  = 2;

credit_delay   = 2;
routing_delay  = 1;
vc_alloc_delay = 1;
sw_alloc_delay = 1;
st_final_delay = 1;

input_speedup     = 1;
output_speedup    = 1;
internal_speedup  = 1.0;

//
// Traffic
//

sim_type = latency;

warmup_periods = 3;
sample_period  = 1000;
sim_count = 1;

//
//topoogy
//

topology = mesh;
k  = 8;
n  = 2;

//
// Routing
//

router = iq;
routing_function = dor;

packet_size = 2;
use_read_write = 0;

traffic  = bitcomp;
injection_rate = {0.35,0.05};
injection_rate_uses_flits = 1;

classes = 2;
class_priority = {0,0};
priority = class;

noq = 0;
hold_switch_for_packet = 0;
vc_prioritize_empty = 0;

//
// express virtual channel settings
//

evc = 1;
num_evcs = 1;
evc_prioritized_class = 1;
selective_vc_request = 1;
hold_switch_for_evc_packet = 1;
evc_next_route = 1;

END Configuration File: ./examples/project_inputs/config-iq_tp-bitcomp_c1ir-0.05_c0ir-0.35_prio-islip
0
Class 0:
Minimum packet latency = 18
Average packet latency = 214.06
Maximum packet latency = 886
Minimum network latency = 18
Average network latency = 202.618
Maximum network latency = 885
Slowest packet = 1249
Minimum flit latency = 17
Average flit latency = 200.866
Maximum flit latency = 884
Slowest flit = 2498
Minimum fragmentation = 0
Average fragmentation = 1.19029
Maximum fragmentation = 16
Minimum injected packet rate = 0.034 (at node 9)
Average injected packet rate = 0.0844687
Maximum injected packet rate = 0.183 (at node 28)
Minimum accepted packet rate = 0.019 (at node 54)
Average accepted packet rate = 0.0615
Maximum accepted packet rate = 0.176 (at node 35)
Minimum injected flit rate = 0.068 (at node 9)
Average injected flit rate = 0.168766
Maximum injected flit rate = 0.366 (at node 28)
Minimum accepted flit rate = 0.038 (at node 54)
Average accepted flit rate = 0.123125
Maximum accepted flit rate = 0.353 (at node 35)
Average injected packet length = 1.99797
Average accepted packet length = 2.00203
Total in-flight flits = 3028 (0 measured)
Class 1:
Minimum packet latency = 19
Average packet latency = 231.38
Maximum packet latency = 807
Minimum network latency = 19
Average network latency = 227.211
Maximum network latency = 807
Slowest packet = 1616
Minimum flit latency = 17
Average flit latency = 225.251
Maximum flit latency = 806
Slowest flit = 3232
Minimum fragmentation = 0
Average fragmentation = 1.19311
Maximum fragmentation = 14
Minimum injected packet rate = 0.009 (at node 55)
Average injected packet rate = 0.0200469
Maximum injected packet rate = 0.033 (at node 31)
Minimum accepted packet rate = 0.001 (at node 8)
Average accepted packet rate = 0.0104375
Maximum accepted packet rate = 0.031 (at node 28)
Minimum injected flit rate = 0.017 (at node 55)
Average injected flit rate = 0.0399687
Maximum injected flit rate = 0.066 (at node 31)
Minimum accepted flit rate = 0.002 (at node 8)
Average accepted flit rate = 0.0208906
Maximum accepted flit rate = 0.062 (at node 28)
Average injected packet length = 1.99376
Average accepted packet length = 2.0015
Total in-flight flits = 1307 (0 measured)
latency change    = 1
throughput change = 1
latency change    = 1
throughput change = 1
0
Class 0:
Minimum packet latency = 18
Average packet latency = 402.638
Maximum packet latency = 1745
Minimum network latency = 18
Average network latency = 299.356
Maximum network latency = 1745
Slowest packet = 2955
Minimum flit latency = 17
Average flit latency = 297.138
Maximum flit latency = 1744
Slowest flit = 5910
Minimum fragmentation = 0
Average fragmentation = 1.29342
Maximum fragmentation = 24
Minimum injected packet rate = 0.022 (at node 9)
Average injected packet rate = 0.0640156
Maximum injected packet rate = 0.1865 (at node 28)
Minimum accepted packet rate = 0.014 (at node 54)
Average accepted packet rate = 0.0537031
Maximum accepted packet rate = 0.18 (at node 35)
Minimum injected flit rate = 0.044 (at node 9)
Average injected flit rate = 0.12793
Maximum injected flit rate = 0.373 (at node 28)
Minimum accepted flit rate = 0.028 (at node 54)
Average accepted flit rate = 0.107438
Maximum accepted flit rate = 0.36 (at node 35)
Average injected packet length = 1.99841
Average accepted packet length = 2.00058
Total in-flight flits = 2730 (0 measured)
Class 1:
Minimum packet latency = 19
Average packet latency = 432.978
Maximum packet latency = 1783
Minimum network latency = 19
Average network latency = 395.722
Maximum network latency = 1725
Slowest packet = 3075
Minimum flit latency = 17
Average flit latency = 392.676
Maximum flit latency = 1724
Slowest flit = 6150
Minimum fragmentation = 0
Average fragmentation = 1.13073
Maximum fragmentation = 16
Minimum injected packet rate = 0.008 (at node 55)
Average injected packet rate = 0.0186953
Maximum injected packet rate = 0.031 (at node 26)
Minimum accepted packet rate = 0.0005 (at node 8)
Average accepted packet rate = 0.0126094
Maximum accepted packet rate = 0.029 (at node 37)
Minimum injected flit rate = 0.016 (at node 55)
Average injected flit rate = 0.0373203
Maximum injected flit rate = 0.062 (at node 26)
Minimum accepted flit rate = 0.001 (at node 8)
Average accepted flit rate = 0.02525
Maximum accepted flit rate = 0.0585 (at node 37)
Average injected packet length = 1.99624
Average accepted packet length = 2.00248
Total in-flight flits = 1638 (0 measured)
latency change    = 0.468356
throughput change = 0.146015
latency change    = 0.465608
throughput change = 0.172649
Average latency for class 0 exceeded 500 cycles. Aborting simulation.
Too many sample periods needed to converge
Simulation unstable, ending ...
Total run time 2.07467
