BEGIN Configuration File: ./examples/project_inputs/config-iqevc_tp-uniform_c1ir-0.05_c0ir-0.17
//
// EVC Router Config File -         
//
// Jason Deng, Mike Wang        
//        

//
// Flow control
//

num_vcs     = 5;
vc_buf_size = 6;

wait_for_tail_credit = 0;

vc_allocator = select;
sw_allocator = select;
alloc_iters  = 2;

credit_delay   = 2;
routing_delay  = 1;
vc_alloc_delay = 1;
sw_alloc_delay = 1;
st_final_delay = 1;

input_speedup     = 1;
output_speedup    = 1;
internal_speedup  = 1.0;

//
// Traffic
//

sim_type = latency;

warmup_periods = 3;
sample_period  = 1000;
sim_count = 1;

//
//topoogy
//

topology = mesh;
k  = 8;
n  = 2;

//
// Routing
//

router = iqevc;
routing_function = dor;

packet_size = 2;
use_read_write = 0;

traffic  = uniform;
injection_rate = {0.17,0.05};
injection_rate_uses_flits = 1;

classes = 2;
class_priority = {0,1};
priority = class;

noq = 0;
hold_switch_for_packet = 0;
vc_prioritize_empty = 0;

//
// express virtual channel settings
//

evc = 1;
num_evcs = 1;
evc_prioritized_class = 1;
selective_vc_request = 1;
hold_switch_for_evc_packet = 1;
evc_next_route = 1;

END Configuration File: ./examples/project_inputs/config-iqevc_tp-uniform_c1ir-0.05_c0ir-0.17
0
Class 0:
Minimum packet latency = 8
Average packet latency = 37.0013
Maximum packet latency = 114
Minimum network latency = 8
Average network latency = 36.7939
Maximum network latency = 114
Slowest packet = 5790
Minimum flit latency = 6
Average flit latency = 35.3302
Maximum flit latency = 113
Slowest flit = 11580
Minimum fragmentation = 0
Average fragmentation = 0.866515
Maximum fragmentation = 16
Minimum injected packet rate = 0.066 (at node 45)
Average injected packet rate = 0.0851563
Maximum injected packet rate = 0.109 (at node 61)
Minimum accepted packet rate = 0.065 (at node 52)
Average accepted packet rate = 0.0821719
Maximum accepted packet rate = 0.102 (at node 34)
Minimum injected flit rate = 0.132 (at node 45)
Average injected flit rate = 0.170234
Maximum injected flit rate = 0.218 (at node 61)
Minimum accepted flit rate = 0.13 (at node 52)
Average accepted flit rate = 0.164531
Maximum accepted flit rate = 0.204 (at node 34)
Average injected packet length = 1.99908
Average accepted packet length = 2.00228
Total in-flight flits = 370 (0 measured)
Class 1:
Minimum packet latency = 8
Average packet latency = 34.8521
Maximum packet latency = 78
Minimum network latency = 8
Average network latency = 34.8289
Maximum network latency = 78
Slowest packet = 796
Minimum flit latency = 7
Average flit latency = 33.8289
Maximum flit latency = 77
Slowest flit = 1592
Minimum fragmentation = 0
Average fragmentation = 0
Maximum fragmentation = 0
Minimum injected packet rate = 0.014 (at node 17)
Average injected packet rate = 0.0250781
Maximum injected packet rate = 0.038 (at node 30)
Minimum accepted packet rate = 0.013 (at node 17)
Average accepted packet rate = 0.0242969
Maximum accepted packet rate = 0.037 (at node 45)
Minimum injected flit rate = 0.028 (at node 17)
Average injected flit rate = 0.0501406
Maximum injected flit rate = 0.076 (at node 30)
Minimum accepted flit rate = 0.026 (at node 17)
Average accepted flit rate = 0.0485937
Maximum accepted flit rate = 0.074 (at node 45)
Average injected packet length = 1.99938
Average accepted packet length = 2
Total in-flight flits = 100 (0 measured)
latency change    = 1
throughput change = 1
latency change    = 1
throughput change = 1
0
Class 0:
Minimum packet latency = 8
Average packet latency = 36.9033
Maximum packet latency = 114
Minimum network latency = 8
Average network latency = 36.7014
Maximum network latency = 114
Slowest packet = 5790
Minimum flit latency = 6
Average flit latency = 35.2524
Maximum flit latency = 113
Slowest flit = 11580
Minimum fragmentation = 0
Average fragmentation = 0.852377
Maximum fragmentation = 18
Minimum injected packet rate = 0.0705 (at node 52)
Average injected packet rate = 0.0848047
Maximum injected packet rate = 0.1035 (at node 28)
Minimum accepted packet rate = 0.069 (at node 36)
Average accepted packet rate = 0.0831406
Maximum accepted packet rate = 0.097 (at node 14)
Minimum injected flit rate = 0.141 (at node 52)
Average injected flit rate = 0.16957
Maximum injected flit rate = 0.207 (at node 28)
Minimum accepted flit rate = 0.138 (at node 36)
Average accepted flit rate = 0.166352
Maximum accepted flit rate = 0.194 (at node 14)
Average injected packet length = 1.99954
Average accepted packet length = 2.00085
Total in-flight flits = 419 (0 measured)
Class 1:
Minimum packet latency = 8
Average packet latency = 35.2317
Maximum packet latency = 82
Minimum network latency = 8
Average network latency = 35.2097
Maximum network latency = 82
Slowest packet = 8820
Minimum flit latency = 7
Average flit latency = 34.2075
Maximum flit latency = 81
Slowest flit = 17640
Minimum fragmentation = 0
Average fragmentation = 0
Maximum fragmentation = 0
Minimum injected packet rate = 0.0155 (at node 62)
Average injected packet rate = 0.0246016
Maximum injected packet rate = 0.031 (at node 39)
Minimum accepted packet rate = 0.0185 (at node 60)
Average accepted packet rate = 0.0242109
Maximum accepted packet rate = 0.0325 (at node 6)
Minimum injected flit rate = 0.031 (at node 62)
Average injected flit rate = 0.0491953
Maximum injected flit rate = 0.062 (at node 39)
Minimum accepted flit rate = 0.037 (at node 60)
Average accepted flit rate = 0.0484297
Maximum accepted flit rate = 0.065 (at node 6)
Average injected packet length = 1.99968
Average accepted packet length = 2.00032
Total in-flight flits = 99 (0 measured)
latency change    = 0.00265622
throughput change = 0.0109426
latency change    = 0.0107743
throughput change = 0.00338764
0
Class 0:
Minimum packet latency = 8
Average packet latency = 36.9439
Maximum packet latency = 84
Minimum network latency = 8
Average network latency = 36.7502
Maximum network latency = 84
Slowest packet = 15157
Minimum flit latency = 7
Average flit latency = 35.2802
Maximum flit latency = 83
Slowest flit = 30314
Minimum fragmentation = 0
Average fragmentation = 0.866253
Maximum fragmentation = 15
Minimum injected packet rate = 0.067 (at node 31)
Average injected packet rate = 0.0852969
Maximum injected packet rate = 0.109 (at node 24)
Minimum accepted packet rate = 0.059 (at node 34)
Average accepted packet rate = 0.0855156
Maximum accepted packet rate = 0.112 (at node 29)
Minimum injected flit rate = 0.134 (at node 31)
Average injected flit rate = 0.170594
Maximum injected flit rate = 0.218 (at node 24)
Minimum accepted flit rate = 0.118 (at node 34)
Average accepted flit rate = 0.170969
Maximum accepted flit rate = 0.224 (at node 29)
Average injected packet length = 2
Average accepted packet length = 1.99927
Total in-flight flits = 393 (0 measured)
Class 1:
Minimum packet latency = 8
Average packet latency = 35.3681
Maximum packet latency = 83
Minimum network latency = 8
Average network latency = 35.3427
Maximum network latency = 83
Slowest packet = 19130
Minimum flit latency = 7
Average flit latency = 34.3465
Maximum flit latency = 82
Slowest flit = 38260
Minimum fragmentation = 0
Average fragmentation = 0
Maximum fragmentation = 0
Minimum injected packet rate = 0.016 (at node 50)
Average injected packet rate = 0.0245625
Maximum injected packet rate = 0.038 (at node 24)
Minimum accepted packet rate = 0.014 (at node 32)
Average accepted packet rate = 0.0245781
Maximum accepted packet rate = 0.036 (at node 6)
Minimum injected flit rate = 0.032 (at node 50)
Average injected flit rate = 0.0491406
Maximum injected flit rate = 0.076 (at node 24)
Minimum accepted flit rate = 0.028 (at node 32)
Average accepted flit rate = 0.0491562
Maximum accepted flit rate = 0.072 (at node 6)
Average injected packet length = 2.00064
Average accepted packet length = 2
Total in-flight flits = 97 (0 measured)
latency change    = 0.00109893
throughput change = 0.027006
latency change    = 0.00385655
throughput change = 0.0147807
Warmed up ...Time used is 3000 cycles
1
Class 0:
Minimum packet latency = 8
Average packet latency = 36.67
Maximum packet latency = 92
Minimum network latency = 8
Average network latency = 36.4333
Maximum network latency = 91
Slowest packet = 26613
Minimum flit latency = 7
Average flit latency = 35.137
Maximum flit latency = 90
Slowest flit = 53227
Minimum fragmentation = 0
Average fragmentation = 0.823552
Maximum fragmentation = 20
Minimum injected packet rate = 0.064 (at node 10)
Average injected packet rate = 0.0830313
Maximum injected packet rate = 0.109 (at node 42)
Minimum accepted packet rate = 0.064 (at node 3)
Average accepted packet rate = 0.0829844
Maximum accepted packet rate = 0.105 (at node 19)
Minimum injected flit rate = 0.128 (at node 10)
Average injected flit rate = 0.166047
Maximum injected flit rate = 0.218 (at node 42)
Minimum accepted flit rate = 0.129 (at node 3)
Average accepted flit rate = 0.166016
Maximum accepted flit rate = 0.21 (at node 19)
Average injected packet length = 1.99981
Average accepted packet length = 2.00056
Total in-flight flits = 396 (396 measured)
Class 1:
Minimum packet latency = 8
Average packet latency = 35.3821
Maximum packet latency = 82
Minimum network latency = 8
Average network latency = 35.3562
Maximum network latency = 82
Slowest packet = 22674
Minimum flit latency = 7
Average flit latency = 34.4662
Maximum flit latency = 81
Slowest flit = 45348
Minimum fragmentation = 0
Average fragmentation = 0
Maximum fragmentation = 0
Minimum injected packet rate = 0.016 (at node 35)
Average injected packet rate = 0.0258281
Maximum injected packet rate = 0.038 (at node 39)
Minimum accepted packet rate = 0.017 (at node 24)
Average accepted packet rate = 0.0255469
Maximum accepted packet rate = 0.038 (at node 56)
Minimum injected flit rate = 0.032 (at node 35)
Average injected flit rate = 0.0515938
Maximum injected flit rate = 0.076 (at node 39)
Minimum accepted flit rate = 0.034 (at node 24)
Average accepted flit rate = 0.0511406
Maximum accepted flit rate = 0.076 (at node 56)
Average injected packet length = 1.99758
Average accepted packet length = 2.00183
Total in-flight flits = 130 (130 measured)
latency change    = 0.00746971
throughput change = 0.0298353
latency change    = 0.000395874
throughput change = 0.0388023
1
Class 0:
Minimum packet latency = 8
Average packet latency = 37.0154
Maximum packet latency = 100
Minimum network latency = 8
Average network latency = 36.783
Maximum network latency = 100
Slowest packet = 32646
Minimum flit latency = 7
Average flit latency = 35.392
Maximum flit latency = 99
Slowest flit = 65292
Minimum fragmentation = 0
Average fragmentation = 0.848157
Maximum fragmentation = 20
Minimum injected packet rate = 0.0715 (at node 9)
Average injected packet rate = 0.0846094
Maximum injected packet rate = 0.099 (at node 6)
Minimum accepted packet rate = 0.0715 (at node 17)
Average accepted packet rate = 0.0846484
Maximum accepted packet rate = 0.101 (at node 10)
Minimum injected flit rate = 0.143 (at node 9)
Average injected flit rate = 0.169227
Maximum injected flit rate = 0.198 (at node 6)
Minimum accepted flit rate = 0.143 (at node 17)
Average accepted flit rate = 0.169375
Maximum accepted flit rate = 0.202 (at node 10)
Average injected packet length = 2.00009
Average accepted packet length = 2.00092
Total in-flight flits = 375 (375 measured)
Class 1:
Minimum packet latency = 8
Average packet latency = 35.3224
Maximum packet latency = 82
Minimum network latency = 8
Average network latency = 35.2979
Maximum network latency = 82
Slowest packet = 22674
Minimum flit latency = 7
Average flit latency = 34.3552
Maximum flit latency = 81
Slowest flit = 45348
Minimum fragmentation = 0
Average fragmentation = 0
Maximum fragmentation = 0
Minimum injected packet rate = 0.0165 (at node 25)
Average injected packet rate = 0.0252813
Maximum injected packet rate = 0.0345 (at node 39)
Minimum accepted packet rate = 0.018 (at node 37)
Average accepted packet rate = 0.0252422
Maximum accepted packet rate = 0.0345 (at node 53)
Minimum injected flit rate = 0.033 (at node 25)
Average injected flit rate = 0.0505469
Maximum injected flit rate = 0.069 (at node 39)
Minimum accepted flit rate = 0.036 (at node 37)
Average accepted flit rate = 0.0505156
Maximum accepted flit rate = 0.069 (at node 53)
Average injected packet length = 1.99938
Average accepted packet length = 2.00124
Total in-flight flits = 103 (103 measured)
latency change    = 0.00933198
throughput change = 0.0198339
latency change    = 0.00168886
throughput change = 0.0123724
1
Class 0:
Minimum packet latency = 8
Average packet latency = 36.9381
Maximum packet latency = 100
Minimum network latency = 8
Average network latency = 36.714
Maximum network latency = 100
Slowest packet = 32646
Minimum flit latency = 7
Average flit latency = 35.3086
Maximum flit latency = 99
Slowest flit = 65292
Minimum fragmentation = 0
Average fragmentation = 0.843068
Maximum fragmentation = 20
Minimum injected packet rate = 0.075 (at node 1)
Average injected packet rate = 0.0853073
Maximum injected packet rate = 0.0973333 (at node 54)
Minimum accepted packet rate = 0.0706667 (at node 28)
Average accepted packet rate = 0.0853021
Maximum accepted packet rate = 0.101333 (at node 9)
Minimum injected flit rate = 0.149667 (at node 1)
Average injected flit rate = 0.170609
Maximum injected flit rate = 0.194667 (at node 54)
Minimum accepted flit rate = 0.141333 (at node 28)
Average accepted flit rate = 0.17063
Maximum accepted flit rate = 0.203333 (at node 9)
Average injected packet length = 1.99994
Average accepted packet length = 2.00031
Total in-flight flits = 390 (390 measured)
Class 1:
Minimum packet latency = 8
Average packet latency = 35.4079
Maximum packet latency = 85
Minimum network latency = 8
Average network latency = 35.383
Maximum network latency = 85
Slowest packet = 40364
Minimum flit latency = 7
Average flit latency = 34.4207
Maximum flit latency = 84
Slowest flit = 80728
Minimum fragmentation = 0
Average fragmentation = 0
Maximum fragmentation = 0
Minimum injected packet rate = 0.0166667 (at node 25)
Average injected packet rate = 0.0252135
Maximum injected packet rate = 0.031 (at node 22)
Minimum accepted packet rate = 0.0183333 (at node 37)
Average accepted packet rate = 0.0251302
Maximum accepted packet rate = 0.0336667 (at node 53)
Minimum injected flit rate = 0.0333333 (at node 25)
Average injected flit rate = 0.0504219
Maximum injected flit rate = 0.062 (at node 22)
Minimum accepted flit rate = 0.0366667 (at node 37)
Average accepted flit rate = 0.0502604
Maximum accepted flit rate = 0.0673333 (at node 53)
Average injected packet length = 1.99979
Average accepted packet length = 2
Total in-flight flits = 129 (129 measured)
latency change    = 0.00209241
throughput change = 0.00735631
latency change    = 0.00241285
throughput change = 0.00507772
Draining all recorded packets ...
Draining remaining packets ...
Time taken is 6145 cycles
====== Traffic class 0 ======
Overall minimum packet latency = 8 (1 samples)
Overall average packet latency = 36.9998 (1 samples)
Overall maximum packet latency = 100 (1 samples)
Overall minimum network latency = 8 (1 samples)
Overall average network latency = 36.7756 (1 samples)
Overall maximum network latency = 100 (1 samples)
Overall minimum flit latency = 7 (1 samples)
Overall average flit latency = 35.3803 (1 samples)
Overall maximum flit latency = 99 (1 samples)
Overall minimum fragmentation = 0 (1 samples)
Overall average fragmentation = 0.844017 (1 samples)
Overall maximum fragmentation = 20 (1 samples)
Overall minimum injected packet rate = 0.075 (1 samples)
Overall average injected packet rate = 0.0853073 (1 samples)
Overall maximum injected packet rate = 0.0973333 (1 samples)
Overall minimum accepted packet rate = 0.0706667 (1 samples)
Overall average accepted packet rate = 0.0853021 (1 samples)
Overall maximum accepted packet rate = 0.101333 (1 samples)
Overall minimum injected flit rate = 0.149667 (1 samples)
Overall average injected flit rate = 0.170609 (1 samples)
Overall maximum injected flit rate = 0.194667 (1 samples)
Overall minimum accepted flit rate = 0.141333 (1 samples)
Overall average accepted flit rate = 0.17063 (1 samples)
Overall maximum accepted flit rate = 0.203333 (1 samples)
Overall average injected packet size = 1.99994 (1 samples)
Overall average accepted packet size = 2.00031 (1 samples)
Overall average hops = 6.26032 (1 samples)
====== Traffic class 1 ======
Overall minimum packet latency = 8 (1 samples)
Overall average packet latency = 35.4902 (1 samples)
Overall maximum packet latency = 85 (1 samples)
Overall minimum network latency = 8 (1 samples)
Overall average network latency = 35.4656 (1 samples)
Overall maximum network latency = 85 (1 samples)
Overall minimum flit latency = 7 (1 samples)
Overall average flit latency = 34.5252 (1 samples)
Overall maximum flit latency = 84 (1 samples)
Overall minimum fragmentation = 0 (1 samples)
Overall average fragmentation = 0 (1 samples)
Overall maximum fragmentation = 0 (1 samples)
Overall minimum injected packet rate = 0.0166667 (1 samples)
Overall average injected packet rate = 0.0252135 (1 samples)
Overall maximum injected packet rate = 0.031 (1 samples)
Overall minimum accepted packet rate = 0.0183333 (1 samples)
Overall average accepted packet rate = 0.0251302 (1 samples)
Overall maximum accepted packet rate = 0.0336667 (1 samples)
Overall minimum injected flit rate = 0.0333333 (1 samples)
Overall average injected flit rate = 0.0504219 (1 samples)
Overall maximum injected flit rate = 0.062 (1 samples)
Overall minimum accepted flit rate = 0.0366667 (1 samples)
Overall average accepted flit rate = 0.0502604 (1 samples)
Overall maximum accepted flit rate = 0.0673333 (1 samples)
Overall average injected packet size = 1.99979 (1 samples)
Overall average accepted packet size = 2 (1 samples)
Overall average hops = 6.2735 (1 samples)
Total run time 16.2478
