BEGIN Configuration File: ./examples/project_inputs/config-iqevc_tp-bitcomp_c1ir-0.05_c0ir-0.09
//
// EVC Router Config File -         
//
// Jason Deng, Mike Wang        
//        

//
// Flow control
//

num_vcs     = 5;
vc_buf_size = 6;

wait_for_tail_credit = 0;

vc_allocator = select;
sw_allocator = select;
alloc_iters  = 2;

credit_delay   = 2;
routing_delay  = 1;
vc_alloc_delay = 1;
sw_alloc_delay = 1;
st_final_delay = 1;

input_speedup     = 1;
output_speedup    = 1;
internal_speedup  = 1.0;

//
// Traffic
//

sim_type = latency;

warmup_periods = 3;
sample_period  = 1000;
sim_count = 1;

//
//topoogy
//

topology = mesh;
k  = 8;
n  = 2;

//
// Routing
//

router = iqevc;
routing_function = dor;

packet_size = 2;
use_read_write = 0;

traffic  = bitcomp;
injection_rate = {0.09,0.05};
injection_rate_uses_flits = 1;

classes = 2;
class_priority = {0,1};
priority = class;

noq = 0;
hold_switch_for_packet = 0;
vc_prioritize_empty = 0;

//
// express virtual channel settings
//

evc = 1;
num_evcs = 1;
evc_prioritized_class = 1;
selective_vc_request = 1;
hold_switch_for_evc_packet = 1;
evc_next_route = 1;

END Configuration File: ./examples/project_inputs/config-iqevc_tp-bitcomp_c1ir-0.05_c0ir-0.09
0
Class 0:
Minimum packet latency = 18
Average packet latency = 51.5068
Maximum packet latency = 102
Minimum network latency = 18
Average network latency = 51.345
Maximum network latency = 102
Slowest packet = 2440
Minimum flit latency = 17
Average flit latency = 49.9306
Maximum flit latency = 101
Slowest flit = 4881
Minimum fragmentation = 0
Average fragmentation = 0.786583
Maximum fragmentation = 18
Minimum injected packet rate = 0.03 (at node 6)
Average injected packet rate = 0.0445625
Maximum injected packet rate = 0.059 (at node 32)
Minimum accepted packet rate = 0.025 (at node 57)
Average accepted packet rate = 0.0423906
Maximum accepted packet rate = 0.057 (at node 31)
Minimum injected flit rate = 0.06 (at node 6)
Average injected flit rate = 0.0890781
Maximum injected flit rate = 0.118 (at node 32)
Minimum accepted flit rate = 0.05 (at node 57)
Average accepted flit rate = 0.0848437
Maximum accepted flit rate = 0.114 (at node 31)
Average injected packet length = 1.99895
Average accepted packet length = 2.00147
Total in-flight flits = 274 (0 measured)
Class 1:
Minimum packet latency = 18
Average packet latency = 50.6426
Maximum packet latency = 96
Minimum network latency = 18
Average network latency = 50.6187
Maximum network latency = 96
Slowest packet = 3887
Minimum flit latency = 17
Average flit latency = 49.6074
Maximum flit latency = 95
Slowest flit = 7774
Minimum fragmentation = 0
Average fragmentation = 0
Maximum fragmentation = 0
Minimum injected packet rate = 0.015 (at node 41)
Average injected packet rate = 0.0256406
Maximum injected packet rate = 0.038 (at node 16)
Minimum accepted packet rate = 0.015 (at node 19)
Average accepted packet rate = 0.0242188
Maximum accepted packet rate = 0.037 (at node 47)
Minimum injected flit rate = 0.03 (at node 41)
Average injected flit rate = 0.0512656
Maximum injected flit rate = 0.076 (at node 16)
Minimum accepted flit rate = 0.03 (at node 19)
Average accepted flit rate = 0.0484687
Maximum accepted flit rate = 0.074 (at node 47)
Average injected packet length = 1.99939
Average accepted packet length = 2.00129
Total in-flight flits = 180 (0 measured)
latency change    = 1
throughput change = 1
latency change    = 1
throughput change = 1
0
Class 0:
Minimum packet latency = 18
Average packet latency = 51.7242
Maximum packet latency = 102
Minimum network latency = 18
Average network latency = 51.5705
Maximum network latency = 102
Slowest packet = 2440
Minimum flit latency = 17
Average flit latency = 50.1297
Maximum flit latency = 101
Slowest flit = 4881
Minimum fragmentation = 0
Average fragmentation = 0.824397
Maximum fragmentation = 26
Minimum injected packet rate = 0.035 (at node 12)
Average injected packet rate = 0.0445625
Maximum injected packet rate = 0.0585 (at node 3)
Minimum accepted packet rate = 0.034 (at node 20)
Average accepted packet rate = 0.0434219
Maximum accepted packet rate = 0.057 (at node 60)
Minimum injected flit rate = 0.07 (at node 12)
Average injected flit rate = 0.0890859
Maximum injected flit rate = 0.117 (at node 3)
Minimum accepted flit rate = 0.068 (at node 20)
Average accepted flit rate = 0.0868828
Maximum accepted flit rate = 0.114 (at node 60)
Average injected packet length = 1.99912
Average accepted packet length = 2.0009
Total in-flight flits = 289 (0 measured)
Class 1:
Minimum packet latency = 18
Average packet latency = 50.433
Maximum packet latency = 96
Minimum network latency = 18
Average network latency = 50.4068
Maximum network latency = 96
Slowest packet = 3887
Minimum flit latency = 17
Average flit latency = 49.4085
Maximum flit latency = 95
Slowest flit = 7774
Minimum fragmentation = 0
Average fragmentation = 0
Maximum fragmentation = 0
Minimum injected packet rate = 0.0165 (at node 11)
Average injected packet rate = 0.0253984
Maximum injected packet rate = 0.0345 (at node 2)
Minimum accepted packet rate = 0.0165 (at node 52)
Average accepted packet rate = 0.0247734
Maximum accepted packet rate = 0.0325 (at node 61)
Minimum injected flit rate = 0.033 (at node 11)
Average injected flit rate = 0.0507891
Maximum injected flit rate = 0.069 (at node 2)
Minimum accepted flit rate = 0.033 (at node 52)
Average accepted flit rate = 0.0495547
Maximum accepted flit rate = 0.065 (at node 61)
Average injected packet length = 1.99969
Average accepted packet length = 2.00032
Total in-flight flits = 159 (0 measured)
latency change    = 0.00420234
throughput change = 0.0234691
latency change    = 0.0041559
throughput change = 0.0219139
0
Class 0:
Minimum packet latency = 18
Average packet latency = 51.4639
Maximum packet latency = 94
Minimum network latency = 18
Average network latency = 51.3206
Maximum network latency = 93
Slowest packet = 10901
Minimum flit latency = 17
Average flit latency = 49.8746
Maximum flit latency = 92
Slowest flit = 21803
Minimum fragmentation = 0
Average fragmentation = 0.839523
Maximum fragmentation = 29
Minimum injected packet rate = 0.028 (at node 62)
Average injected packet rate = 0.0445313
Maximum injected packet rate = 0.058 (at node 4)
Minimum accepted packet rate = 0.031 (at node 1)
Average accepted packet rate = 0.0445938
Maximum accepted packet rate = 0.058 (at node 59)
Minimum injected flit rate = 0.056 (at node 62)
Average injected flit rate = 0.0891094
Maximum injected flit rate = 0.116 (at node 4)
Minimum accepted flit rate = 0.062 (at node 1)
Average accepted flit rate = 0.0892187
Maximum accepted flit rate = 0.116 (at node 59)
Average injected packet length = 2.00105
Average accepted packet length = 2.0007
Total in-flight flits = 277 (0 measured)
Class 1:
Minimum packet latency = 18
Average packet latency = 50.5672
Maximum packet latency = 96
Minimum network latency = 18
Average network latency = 50.5402
Maximum network latency = 94
Slowest packet = 9943
Minimum flit latency = 17
Average flit latency = 49.5454
Maximum flit latency = 93
Slowest flit = 19886
Minimum fragmentation = 0
Average fragmentation = 0
Maximum fragmentation = 0
Minimum injected packet rate = 0.014 (at node 46)
Average injected packet rate = 0.0249375
Maximum injected packet rate = 0.034 (at node 21)
Minimum accepted packet rate = 0.015 (at node 17)
Average accepted packet rate = 0.024875
Maximum accepted packet rate = 0.034 (at node 9)
Minimum injected flit rate = 0.028 (at node 46)
Average injected flit rate = 0.0498906
Maximum injected flit rate = 0.068 (at node 21)
Minimum accepted flit rate = 0.03 (at node 17)
Average accepted flit rate = 0.0497656
Maximum accepted flit rate = 0.068 (at node 9)
Average injected packet length = 2.00063
Average accepted packet length = 2.00063
Total in-flight flits = 166 (0 measured)
latency change    = 0.00505735
throughput change = 0.0261821
latency change    = 0.00265438
throughput change = 0.00423862
Warmed up ...Time used is 3000 cycles
1
Class 0:
Minimum packet latency = 18
Average packet latency = 50.975
Maximum packet latency = 103
Minimum network latency = 18
Average network latency = 50.8248
Maximum network latency = 101
Slowest packet = 13673
Minimum flit latency = 17
Average flit latency = 49.766
Maximum flit latency = 100
Slowest flit = 32555
Minimum fragmentation = 0
Average fragmentation = 0.80898
Maximum fragmentation = 18
Minimum injected packet rate = 0.028 (at node 63)
Average injected packet rate = 0.0449531
Maximum injected packet rate = 0.062 (at node 58)
Minimum accepted packet rate = 0.026 (at node 0)
Average accepted packet rate = 0.0446719
Maximum accepted packet rate = 0.056 (at node 28)
Minimum injected flit rate = 0.055 (at node 63)
Average injected flit rate = 0.0898594
Maximum injected flit rate = 0.124 (at node 58)
Minimum accepted flit rate = 0.052 (at node 0)
Average accepted flit rate = 0.0893281
Maximum accepted flit rate = 0.112 (at node 28)
Average injected packet length = 1.99896
Average accepted packet length = 1.99965
Total in-flight flits = 314 (314 measured)
Class 1:
Minimum packet latency = 18
Average packet latency = 50.5
Maximum packet latency = 94
Minimum network latency = 18
Average network latency = 50.4648
Maximum network latency = 94
Slowest packet = 16318
Minimum flit latency = 17
Average flit latency = 49.776
Maximum flit latency = 93
Slowest flit = 32636
Minimum fragmentation = 0
Average fragmentation = 0
Maximum fragmentation = 0
Minimum injected packet rate = 0.014 (at node 57)
Average injected packet rate = 0.0249219
Maximum injected packet rate = 0.036 (at node 49)
Minimum accepted packet rate = 0.014 (at node 6)
Average accepted packet rate = 0.0248438
Maximum accepted packet rate = 0.036 (at node 14)
Minimum injected flit rate = 0.028 (at node 57)
Average injected flit rate = 0.0498125
Maximum injected flit rate = 0.072 (at node 49)
Minimum accepted flit rate = 0.028 (at node 6)
Average accepted flit rate = 0.0496562
Maximum accepted flit rate = 0.072 (at node 14)
Average injected packet length = 1.99875
Average accepted packet length = 1.99874
Total in-flight flits = 178 (178 measured)
latency change    = 0.00959172
throughput change = 0.00122442
latency change    = 0.00133091
throughput change = 0.00220264
1
Class 0:
Minimum packet latency = 18
Average packet latency = 51.333
Maximum packet latency = 103
Minimum network latency = 18
Average network latency = 51.1841
Maximum network latency = 101
Slowest packet = 13673
Minimum flit latency = 16
Average flit latency = 49.9146
Maximum flit latency = 100
Slowest flit = 32555
Minimum fragmentation = 0
Average fragmentation = 0.831963
Maximum fragmentation = 18
Minimum injected packet rate = 0.0335 (at node 63)
Average injected packet rate = 0.0447813
Maximum injected packet rate = 0.0555 (at node 47)
Minimum accepted packet rate = 0.032 (at node 0)
Average accepted packet rate = 0.0448125
Maximum accepted packet rate = 0.057 (at node 16)
Minimum injected flit rate = 0.067 (at node 63)
Average injected flit rate = 0.0895703
Maximum injected flit rate = 0.111 (at node 47)
Minimum accepted flit rate = 0.064 (at node 0)
Average accepted flit rate = 0.0896719
Maximum accepted flit rate = 0.1145 (at node 16)
Average injected packet length = 2.00017
Average accepted packet length = 2.00105
Total in-flight flits = 265 (265 measured)
Class 1:
Minimum packet latency = 18
Average packet latency = 50.6655
Maximum packet latency = 98
Minimum network latency = 18
Average network latency = 50.6361
Maximum network latency = 98
Slowest packet = 17773
Minimum flit latency = 17
Average flit latency = 49.7867
Maximum flit latency = 97
Slowest flit = 35546
Minimum fragmentation = 0
Average fragmentation = 0
Maximum fragmentation = 0
Minimum injected packet rate = 0.014 (at node 22)
Average injected packet rate = 0.0250156
Maximum injected packet rate = 0.035 (at node 6)
Minimum accepted packet rate = 0.014 (at node 41)
Average accepted packet rate = 0.0250859
Maximum accepted packet rate = 0.0345 (at node 57)
Minimum injected flit rate = 0.028 (at node 22)
Average injected flit rate = 0.0500234
Maximum injected flit rate = 0.07 (at node 6)
Minimum accepted flit rate = 0.028 (at node 41)
Average accepted flit rate = 0.0501719
Maximum accepted flit rate = 0.069 (at node 57)
Average injected packet length = 1.99969
Average accepted packet length = 2
Total in-flight flits = 148 (148 measured)
latency change    = 0.00697529
throughput change = 0.00383342
latency change    = 0.00326641
throughput change = 0.0102772
1
Class 0:
Minimum packet latency = 18
Average packet latency = 51.3202
Maximum packet latency = 103
Minimum network latency = 18
Average network latency = 51.1755
Maximum network latency = 101
Slowest packet = 13673
Minimum flit latency = 16
Average flit latency = 49.8482
Maximum flit latency = 100
Slowest flit = 32555
Minimum fragmentation = 0
Average fragmentation = 0.82902
Maximum fragmentation = 31
Minimum injected packet rate = 0.0383333 (at node 26)
Average injected packet rate = 0.0453021
Maximum injected packet rate = 0.052 (at node 43)
Minimum accepted packet rate = 0.0386667 (at node 37)
Average accepted packet rate = 0.0452135
Maximum accepted packet rate = 0.0516667 (at node 38)
Minimum injected flit rate = 0.0766667 (at node 26)
Average injected flit rate = 0.0905938
Maximum injected flit rate = 0.104 (at node 43)
Minimum accepted flit rate = 0.0773333 (at node 37)
Average accepted flit rate = 0.0904115
Maximum accepted flit rate = 0.103333 (at node 38)
Average injected packet length = 1.99977
Average accepted packet length = 1.99965
Total in-flight flits = 314 (314 measured)
Class 1:
Minimum packet latency = 18
Average packet latency = 50.6129
Maximum packet latency = 106
Minimum network latency = 18
Average network latency = 50.5858
Maximum network latency = 106
Slowest packet = 25356
Minimum flit latency = 17
Average flit latency = 49.6867
Maximum flit latency = 105
Slowest flit = 50712
Minimum fragmentation = 0
Average fragmentation = 0
Maximum fragmentation = 0
Minimum injected packet rate = 0.0186667 (at node 22)
Average injected packet rate = 0.0250625
Maximum injected packet rate = 0.034 (at node 6)
Minimum accepted packet rate = 0.0186667 (at node 41)
Average accepted packet rate = 0.0250208
Maximum accepted packet rate = 0.034 (at node 57)
Minimum injected flit rate = 0.0373333 (at node 22)
Average injected flit rate = 0.0501198
Maximum injected flit rate = 0.068 (at node 6)
Minimum accepted flit rate = 0.0373333 (at node 41)
Average accepted flit rate = 0.0500312
Maximum accepted flit rate = 0.068 (at node 57)
Average injected packet length = 1.99979
Average accepted packet length = 1.99958
Total in-flight flits = 184 (184 measured)
latency change    = 0.000250533
throughput change = 0.00818019
latency change    = 0.00103867
throughput change = 0.00281074
Draining all recorded packets ...
Draining remaining packets ...
Time taken is 6156 cycles
====== Traffic class 0 ======
Overall minimum packet latency = 18 (1 samples)
Overall average packet latency = 51.4004 (1 samples)
Overall maximum packet latency = 103 (1 samples)
Overall minimum network latency = 18 (1 samples)
Overall average network latency = 51.2555 (1 samples)
Overall maximum network latency = 101 (1 samples)
Overall minimum flit latency = 16 (1 samples)
Overall average flit latency = 49.889 (1 samples)
Overall maximum flit latency = 100 (1 samples)
Overall minimum fragmentation = 0 (1 samples)
Overall average fragmentation = 0.83226 (1 samples)
Overall maximum fragmentation = 31 (1 samples)
Overall minimum injected packet rate = 0.0383333 (1 samples)
Overall average injected packet rate = 0.0453021 (1 samples)
Overall maximum injected packet rate = 0.052 (1 samples)
Overall minimum accepted packet rate = 0.0386667 (1 samples)
Overall average accepted packet rate = 0.0452135 (1 samples)
Overall maximum accepted packet rate = 0.0516667 (1 samples)
Overall minimum injected flit rate = 0.0766667 (1 samples)
Overall average injected flit rate = 0.0905938 (1 samples)
Overall maximum injected flit rate = 0.104 (1 samples)
Overall minimum accepted flit rate = 0.0773333 (1 samples)
Overall average accepted flit rate = 0.0904115 (1 samples)
Overall maximum accepted flit rate = 0.103333 (1 samples)
Overall average injected packet size = 1.99977 (1 samples)
Overall average accepted packet size = 1.99965 (1 samples)
Overall average hops = 8.98965 (1 samples)
====== Traffic class 1 ======
Overall minimum packet latency = 18 (1 samples)
Overall average packet latency = 50.7384 (1 samples)
Overall maximum packet latency = 106 (1 samples)
Overall minimum network latency = 18 (1 samples)
Overall average network latency = 50.7103 (1 samples)
Overall maximum network latency = 106 (1 samples)
Overall minimum flit latency = 17 (1 samples)
Overall average flit latency = 49.7704 (1 samples)
Overall maximum flit latency = 105 (1 samples)
Overall minimum fragmentation = 0 (1 samples)
Overall average fragmentation = 0 (1 samples)
Overall maximum fragmentation = 0 (1 samples)
Overall minimum injected packet rate = 0.0186667 (1 samples)
Overall average injected packet rate = 0.0250625 (1 samples)
Overall maximum injected packet rate = 0.034 (1 samples)
Overall minimum accepted packet rate = 0.0186667 (1 samples)
Overall average accepted packet rate = 0.0250208 (1 samples)
Overall maximum accepted packet rate = 0.034 (1 samples)
Overall minimum injected flit rate = 0.0373333 (1 samples)
Overall average injected flit rate = 0.0501198 (1 samples)
Overall maximum injected flit rate = 0.068 (1 samples)
Overall minimum accepted flit rate = 0.0373333 (1 samples)
Overall average accepted flit rate = 0.0500312 (1 samples)
Overall maximum accepted flit rate = 0.068 (1 samples)
Overall average injected packet size = 1.99979 (1 samples)
Overall average accepted packet size = 1.99958 (1 samples)
Overall average hops = 9.03824 (1 samples)
Total run time 13.5224
