BEGIN Configuration File: ./examples/project_inputs/config-iqevc_tp-uniform_c1ir-0.05_c0ir-0.25
//
// EVC Router Config File -         
//
// Jason Deng, Mike Wang        
//        

//
// Flow control
//

num_vcs     = 5;
vc_buf_size = 6;

wait_for_tail_credit = 0;

vc_allocator = select;
sw_allocator = select;
alloc_iters  = 2;

credit_delay   = 2;
routing_delay  = 1;
vc_alloc_delay = 1;
sw_alloc_delay = 1;
st_final_delay = 1;

input_speedup     = 1;
output_speedup    = 1;
internal_speedup  = 1.0;

//
// Traffic
//

sim_type = latency;

warmup_periods = 3;
sample_period  = 1000;
sim_count = 1;

//
//topoogy
//

topology = mesh;
k  = 8;
n  = 2;

//
// Routing
//

router = iqevc;
routing_function = dor;

packet_size = 2;
use_read_write = 0;

traffic  = uniform;
injection_rate = {0.25,0.05};
injection_rate_uses_flits = 1;

classes = 2;
class_priority = {0,1};
priority = class;

noq = 0;
hold_switch_for_packet = 0;
vc_prioritize_empty = 0;

//
// express virtual channel settings
//

evc = 1;
num_evcs = 1;
evc_prioritized_class = 1;
selective_vc_request = 1;
hold_switch_for_evc_packet = 1;
evc_next_route = 1;

END Configuration File: ./examples/project_inputs/config-iqevc_tp-uniform_c1ir-0.05_c0ir-0.25
0
Class 0:
Minimum packet latency = 8
Average packet latency = 39.7578
Maximum packet latency = 118
Minimum network latency = 8
Average network latency = 39.4541
Maximum network latency = 117
Slowest packet = 3597
Minimum flit latency = 6
Average flit latency = 37.7714
Maximum flit latency = 116
Slowest flit = 7155
Minimum fragmentation = 0
Average fragmentation = 1.30511
Maximum fragmentation = 23
Minimum injected packet rate = 0.102 (at node 39)
Average injected packet rate = 0.124188
Maximum injected packet rate = 0.143 (at node 61)
Minimum accepted packet rate = 0.092 (at node 62)
Average accepted packet rate = 0.119016
Maximum accepted packet rate = 0.146 (at node 14)
Minimum injected flit rate = 0.204 (at node 39)
Average injected flit rate = 0.248172
Maximum injected flit rate = 0.285 (at node 61)
Minimum accepted flit rate = 0.184 (at node 62)
Average accepted flit rate = 0.238437
Maximum accepted flit rate = 0.293 (at node 14)
Average injected packet length = 1.99836
Average accepted packet length = 2.00341
Total in-flight flits = 636 (0 measured)
Class 1:
Minimum packet latency = 8
Average packet latency = 35.5127
Maximum packet latency = 84
Minimum network latency = 8
Average network latency = 35.4828
Maximum network latency = 84
Slowest packet = 6005
Minimum flit latency = 7
Average flit latency = 34.4846
Maximum flit latency = 83
Slowest flit = 12010
Minimum fragmentation = 0
Average fragmentation = 0
Maximum fragmentation = 0
Minimum injected packet rate = 0.018 (at node 46)
Average injected packet rate = 0.0254844
Maximum injected packet rate = 0.037 (at node 54)
Minimum accepted packet rate = 0.013 (at node 57)
Average accepted packet rate = 0.0245625
Maximum accepted packet rate = 0.039 (at node 37)
Minimum injected flit rate = 0.036 (at node 46)
Average injected flit rate = 0.0509375
Maximum injected flit rate = 0.074 (at node 54)
Minimum accepted flit rate = 0.026 (at node 57)
Average accepted flit rate = 0.0491406
Maximum accepted flit rate = 0.078 (at node 37)
Average injected packet length = 1.99877
Average accepted packet length = 2.00064
Total in-flight flits = 117 (0 measured)
latency change    = 1
throughput change = 1
latency change    = 1
throughput change = 1
0
Class 0:
Minimum packet latency = 8
Average packet latency = 39.9279
Maximum packet latency = 143
Minimum network latency = 8
Average network latency = 39.6268
Maximum network latency = 141
Slowest packet = 11500
Minimum flit latency = 6
Average flit latency = 37.9457
Maximum flit latency = 140
Slowest flit = 23000
Minimum fragmentation = 0
Average fragmentation = 1.3077
Maximum fragmentation = 23
Minimum injected packet rate = 0.107 (at node 60)
Average injected packet rate = 0.124328
Maximum injected packet rate = 0.1405 (at node 31)
Minimum accepted packet rate = 0.103 (at node 36)
Average accepted packet rate = 0.121617
Maximum accepted packet rate = 0.1375 (at node 12)
Minimum injected flit rate = 0.214 (at node 60)
Average injected flit rate = 0.248586
Maximum injected flit rate = 0.281 (at node 31)
Minimum accepted flit rate = 0.2065 (at node 36)
Average accepted flit rate = 0.243422
Maximum accepted flit rate = 0.275 (at node 12)
Average injected packet length = 1.99943
Average accepted packet length = 2.00154
Total in-flight flits = 672 (0 measured)
Class 1:
Minimum packet latency = 8
Average packet latency = 35.5261
Maximum packet latency = 84
Minimum network latency = 8
Average network latency = 35.4977
Maximum network latency = 84
Slowest packet = 6005
Minimum flit latency = 7
Average flit latency = 34.4977
Maximum flit latency = 83
Slowest flit = 12010
Minimum fragmentation = 0
Average fragmentation = 0
Maximum fragmentation = 0
Minimum injected packet rate = 0.019 (at node 15)
Average injected packet rate = 0.0254219
Maximum injected packet rate = 0.0345 (at node 10)
Minimum accepted packet rate = 0.0155 (at node 57)
Average accepted packet rate = 0.0250234
Maximum accepted packet rate = 0.034 (at node 37)
Minimum injected flit rate = 0.038 (at node 15)
Average injected flit rate = 0.0508359
Maximum injected flit rate = 0.069 (at node 10)
Minimum accepted flit rate = 0.031 (at node 57)
Average accepted flit rate = 0.0500469
Maximum accepted flit rate = 0.068 (at node 37)
Average injected packet length = 1.99969
Average accepted packet length = 2
Total in-flight flits = 102 (0 measured)
latency change    = 0.00426132
throughput change = 0.0204763
latency change    = 0.000375686
throughput change = 0.018108
0
Class 0:
Minimum packet latency = 8
Average packet latency = 39.8345
Maximum packet latency = 120
Minimum network latency = 8
Average network latency = 39.5403
Maximum network latency = 120
Slowest packet = 20810
Minimum flit latency = 7
Average flit latency = 37.8692
Maximum flit latency = 119
Slowest flit = 41621
Minimum fragmentation = 0
Average fragmentation = 1.30769
Maximum fragmentation = 25
Minimum injected packet rate = 0.096 (at node 19)
Average injected packet rate = 0.124797
Maximum injected packet rate = 0.153 (at node 29)
Minimum accepted packet rate = 0.104 (at node 12)
Average accepted packet rate = 0.125531
Maximum accepted packet rate = 0.153 (at node 23)
Minimum injected flit rate = 0.192 (at node 19)
Average injected flit rate = 0.249625
Maximum injected flit rate = 0.306 (at node 29)
Minimum accepted flit rate = 0.208 (at node 12)
Average accepted flit rate = 0.250875
Maximum accepted flit rate = 0.306 (at node 23)
Average injected packet length = 2.00025
Average accepted packet length = 1.99851
Total in-flight flits = 588 (0 measured)
Class 1:
Minimum packet latency = 8
Average packet latency = 35.8511
Maximum packet latency = 83
Minimum network latency = 8
Average network latency = 35.8281
Maximum network latency = 83
Slowest packet = 22488
Minimum flit latency = 7
Average flit latency = 34.8481
Maximum flit latency = 82
Slowest flit = 44976
Minimum fragmentation = 0
Average fragmentation = 0
Maximum fragmentation = 0
Minimum injected packet rate = 0.016 (at node 61)
Average injected packet rate = 0.0245
Maximum injected packet rate = 0.038 (at node 29)
Minimum accepted packet rate = 0.014 (at node 3)
Average accepted packet rate = 0.0244531
Maximum accepted packet rate = 0.039 (at node 54)
Minimum injected flit rate = 0.032 (at node 61)
Average injected flit rate = 0.0490156
Maximum injected flit rate = 0.076 (at node 29)
Minimum accepted flit rate = 0.028 (at node 3)
Average accepted flit rate = 0.0489531
Maximum accepted flit rate = 0.078 (at node 54)
Average injected packet length = 2.00064
Average accepted packet length = 2.00192
Total in-flight flits = 105 (0 measured)
latency change    = 0.00234648
throughput change = 0.0297085
latency change    = 0.00906663
throughput change = 0.0223428
Warmed up ...Time used is 3000 cycles
1
Class 0:
Minimum packet latency = 8
Average packet latency = 39.2981
Maximum packet latency = 116
Minimum network latency = 8
Average network latency = 39.0088
Maximum network latency = 115
Slowest packet = 30138
Minimum flit latency = 7
Average flit latency = 37.6333
Maximum flit latency = 114
Slowest flit = 60276
Minimum fragmentation = 0
Average fragmentation = 1.2815
Maximum fragmentation = 30
Minimum injected packet rate = 0.101 (at node 62)
Average injected packet rate = 0.123625
Maximum injected packet rate = 0.155 (at node 4)
Minimum accepted packet rate = 0.088 (at node 17)
Average accepted packet rate = 0.12325
Maximum accepted packet rate = 0.151 (at node 20)
Minimum injected flit rate = 0.202 (at node 62)
Average injected flit rate = 0.24725
Maximum injected flit rate = 0.31 (at node 4)
Minimum accepted flit rate = 0.177 (at node 17)
Average accepted flit rate = 0.246594
Maximum accepted flit rate = 0.303 (at node 20)
Average injected packet length = 2
Average accepted packet length = 2.00076
Total in-flight flits = 632 (632 measured)
Class 1:
Minimum packet latency = 8
Average packet latency = 35.3644
Maximum packet latency = 87
Minimum network latency = 8
Average network latency = 35.3329
Maximum network latency = 87
Slowest packet = 29021
Minimum flit latency = 7
Average flit latency = 34.554
Maximum flit latency = 86
Slowest flit = 58042
Minimum fragmentation = 0
Average fragmentation = 0
Maximum fragmentation = 0
Minimum injected packet rate = 0.016 (at node 36)
Average injected packet rate = 0.0260469
Maximum injected packet rate = 0.035 (at node 26)
Minimum accepted packet rate = 0.011 (at node 20)
Average accepted packet rate = 0.025625
Maximum accepted packet rate = 0.043 (at node 30)
Minimum injected flit rate = 0.032 (at node 36)
Average injected flit rate = 0.0520469
Maximum injected flit rate = 0.07 (at node 26)
Minimum accepted flit rate = 0.022 (at node 20)
Average accepted flit rate = 0.0512188
Maximum accepted flit rate = 0.086 (at node 30)
Average injected packet length = 1.9982
Average accepted packet length = 1.99878
Total in-flight flits = 161 (161 measured)
latency change    = 0.0136483
throughput change = 0.0173616
latency change    = 0.0137618
throughput change = 0.0442343
1
Class 0:
Minimum packet latency = 8
Average packet latency = 39.4939
Maximum packet latency = 120
Minimum network latency = 8
Average network latency = 39.2011
Maximum network latency = 120
Slowest packet = 44081
Minimum flit latency = 7
Average flit latency = 37.6565
Maximum flit latency = 119
Slowest flit = 88163
Minimum fragmentation = 0
Average fragmentation = 1.31688
Maximum fragmentation = 30
Minimum injected packet rate = 0.1085 (at node 33)
Average injected packet rate = 0.124078
Maximum injected packet rate = 0.139 (at node 57)
Minimum accepted packet rate = 0.106 (at node 17)
Average accepted packet rate = 0.123891
Maximum accepted packet rate = 0.1435 (at node 20)
Minimum injected flit rate = 0.217 (at node 33)
Average injected flit rate = 0.248141
Maximum injected flit rate = 0.278 (at node 57)
Minimum accepted flit rate = 0.2125 (at node 17)
Average accepted flit rate = 0.24782
Maximum accepted flit rate = 0.287 (at node 20)
Average injected packet length = 1.99987
Average accepted packet length = 2.00032
Total in-flight flits = 631 (631 measured)
Class 1:
Minimum packet latency = 8
Average packet latency = 35.6155
Maximum packet latency = 87
Minimum network latency = 8
Average network latency = 35.5869
Maximum network latency = 87
Slowest packet = 29021
Minimum flit latency = 7
Average flit latency = 34.6855
Maximum flit latency = 86
Slowest flit = 58042
Minimum fragmentation = 0
Average fragmentation = 0
Maximum fragmentation = 0
Minimum injected packet rate = 0.0195 (at node 7)
Average injected packet rate = 0.0255547
Maximum injected packet rate = 0.0365 (at node 59)
Minimum accepted packet rate = 0.016 (at node 20)
Average accepted packet rate = 0.0255937
Maximum accepted packet rate = 0.0405 (at node 51)
Minimum injected flit rate = 0.039 (at node 7)
Average injected flit rate = 0.0510859
Maximum injected flit rate = 0.073 (at node 59)
Minimum accepted flit rate = 0.032 (at node 20)
Average accepted flit rate = 0.0511797
Maximum accepted flit rate = 0.081 (at node 51)
Average injected packet length = 1.99908
Average accepted packet length = 1.99969
Total in-flight flits = 96 (96 measured)
latency change    = 0.00495751
throughput change = 0.0049494
latency change    = 0.00704799
throughput change = 0.000763242
1
Class 0:
Minimum packet latency = 8
Average packet latency = 39.5949
Maximum packet latency = 120
Minimum network latency = 8
Average network latency = 39.3011
Maximum network latency = 120
Slowest packet = 44081
Minimum flit latency = 7
Average flit latency = 37.7203
Maximum flit latency = 119
Slowest flit = 88163
Minimum fragmentation = 0
Average fragmentation = 1.2945
Maximum fragmentation = 30
Minimum injected packet rate = 0.111 (at node 62)
Average injected packet rate = 0.124083
Maximum injected packet rate = 0.138667 (at node 57)
Minimum accepted packet rate = 0.109 (at node 17)
Average accepted packet rate = 0.12375
Maximum accepted packet rate = 0.14 (at node 57)
Minimum injected flit rate = 0.222 (at node 62)
Average injected flit rate = 0.248177
Maximum injected flit rate = 0.277333 (at node 57)
Minimum accepted flit rate = 0.218 (at node 17)
Average accepted flit rate = 0.247536
Maximum accepted flit rate = 0.28 (at node 57)
Average injected packet length = 2.00008
Average accepted packet length = 2.00029
Total in-flight flits = 709 (709 measured)
Class 1:
Minimum packet latency = 8
Average packet latency = 35.5601
Maximum packet latency = 87
Minimum network latency = 8
Average network latency = 35.533
Maximum network latency = 87
Slowest packet = 29021
Minimum flit latency = 7
Average flit latency = 34.6007
Maximum flit latency = 86
Slowest flit = 58042
Minimum fragmentation = 0
Average fragmentation = 0
Maximum fragmentation = 0
Minimum injected packet rate = 0.0206667 (at node 7)
Average injected packet rate = 0.025474
Maximum injected packet rate = 0.031 (at node 59)
Minimum accepted packet rate = 0.0186667 (at node 43)
Average accepted packet rate = 0.0254531
Maximum accepted packet rate = 0.0313333 (at node 51)
Minimum injected flit rate = 0.0413333 (at node 7)
Average injected flit rate = 0.0509479
Maximum injected flit rate = 0.062 (at node 59)
Minimum accepted flit rate = 0.0373333 (at node 43)
Average accepted flit rate = 0.0508906
Maximum accepted flit rate = 0.0626667 (at node 51)
Average injected packet length = 2
Average accepted packet length = 1.99939
Total in-flight flits = 116 (116 measured)
latency change    = 0.00255168
throughput change = 0.00114672
latency change    = 0.00155648
throughput change = 0.00568007
Draining all recorded packets ...
Draining remaining packets ...
Time taken is 6150 cycles
====== Traffic class 0 ======
Overall minimum packet latency = 8 (1 samples)
Overall average packet latency = 39.7547 (1 samples)
Overall maximum packet latency = 143 (1 samples)
Overall minimum network latency = 8 (1 samples)
Overall average network latency = 39.4613 (1 samples)
Overall maximum network latency = 143 (1 samples)
Overall minimum flit latency = 7 (1 samples)
Overall average flit latency = 37.8647 (1 samples)
Overall maximum flit latency = 142 (1 samples)
Overall minimum fragmentation = 0 (1 samples)
Overall average fragmentation = 1.29693 (1 samples)
Overall maximum fragmentation = 30 (1 samples)
Overall minimum injected packet rate = 0.111 (1 samples)
Overall average injected packet rate = 0.124083 (1 samples)
Overall maximum injected packet rate = 0.138667 (1 samples)
Overall minimum accepted packet rate = 0.109 (1 samples)
Overall average accepted packet rate = 0.12375 (1 samples)
Overall maximum accepted packet rate = 0.14 (1 samples)
Overall minimum injected flit rate = 0.222 (1 samples)
Overall average injected flit rate = 0.248177 (1 samples)
Overall maximum injected flit rate = 0.277333 (1 samples)
Overall minimum accepted flit rate = 0.218 (1 samples)
Overall average accepted flit rate = 0.247536 (1 samples)
Overall maximum accepted flit rate = 0.28 (1 samples)
Overall average injected packet size = 2.00008 (1 samples)
Overall average accepted packet size = 2.00029 (1 samples)
Overall average hops = 6.26683 (1 samples)
====== Traffic class 1 ======
Overall minimum packet latency = 8 (1 samples)
Overall average packet latency = 35.6087 (1 samples)
Overall maximum packet latency = 87 (1 samples)
Overall minimum network latency = 8 (1 samples)
Overall average network latency = 35.5815 (1 samples)
Overall maximum network latency = 87 (1 samples)
Overall minimum flit latency = 7 (1 samples)
Overall average flit latency = 34.6756 (1 samples)
Overall maximum flit latency = 86 (1 samples)
Overall minimum fragmentation = 0 (1 samples)
Overall average fragmentation = 0 (1 samples)
Overall maximum fragmentation = 0 (1 samples)
Overall minimum injected packet rate = 0.0206667 (1 samples)
Overall average injected packet rate = 0.025474 (1 samples)
Overall maximum injected packet rate = 0.031 (1 samples)
Overall minimum accepted packet rate = 0.0186667 (1 samples)
Overall average accepted packet rate = 0.0254531 (1 samples)
Overall maximum accepted packet rate = 0.0313333 (1 samples)
Overall minimum injected flit rate = 0.0413333 (1 samples)
Overall average injected flit rate = 0.0509479 (1 samples)
Overall maximum injected flit rate = 0.062 (1 samples)
Overall minimum accepted flit rate = 0.0373333 (1 samples)
Overall average accepted flit rate = 0.0508906 (1 samples)
Overall maximum accepted flit rate = 0.0626667 (1 samples)
Overall average injected packet size = 2 (1 samples)
Overall average accepted packet size = 1.99939 (1 samples)
Overall average hops = 6.2754 (1 samples)
Total run time 21.3503
