BEGIN Configuration File: ./examples/project_inputs/config-iqevc_tp-uniform_c1ir-0.05_c0ir-0.13
//
// EVC Router Config File -         
//
// Jason Deng, Mike Wang        
//        

//
// Flow control
//

num_vcs     = 5;
vc_buf_size = 6;

wait_for_tail_credit = 0;

vc_allocator = select;
sw_allocator = select;
alloc_iters  = 2;

credit_delay   = 2;
routing_delay  = 1;
vc_alloc_delay = 1;
sw_alloc_delay = 1;
st_final_delay = 1;

input_speedup     = 1;
output_speedup    = 1;
internal_speedup  = 1.0;

//
// Traffic
//

sim_type = latency;

warmup_periods = 3;
sample_period  = 1000;
sim_count = 1;

//
//topoogy
//

topology = mesh;
k  = 8;
n  = 2;

//
// Routing
//

router = iqevc;
routing_function = dor;

packet_size = 2;
use_read_write = 0;

traffic  = uniform;
injection_rate = {0.13,0.05};
injection_rate_uses_flits = 1;

classes = 2;
class_priority = {0,1};
priority = class;

noq = 0;
hold_switch_for_packet = 0;
vc_prioritize_empty = 0;

//
// express virtual channel settings
//

evc = 1;
num_evcs = 1;
evc_prioritized_class = 1;
selective_vc_request = 1;
hold_switch_for_evc_packet = 1;
evc_next_route = 1;

END Configuration File: ./examples/project_inputs/config-iqevc_tp-uniform_c1ir-0.05_c0ir-0.13
0
Class 0:
Minimum packet latency = 8
Average packet latency = 36.0519
Maximum packet latency = 86
Minimum network latency = 8
Average network latency = 35.8729
Maximum network latency = 86
Slowest packet = 4244
Minimum flit latency = 5
Average flit latency = 34.5471
Maximum flit latency = 85
Slowest flit = 8489
Minimum fragmentation = 0
Average fragmentation = 0.59908
Maximum fragmentation = 14
Minimum injected packet rate = 0.046 (at node 42)
Average injected packet rate = 0.0631094
Maximum injected packet rate = 0.085 (at node 57)
Minimum accepted packet rate = 0.047 (at node 42)
Average accepted packet rate = 0.0611094
Maximum accepted packet rate = 0.079 (at node 49)
Minimum injected flit rate = 0.092 (at node 42)
Average injected flit rate = 0.126125
Maximum injected flit rate = 0.17 (at node 57)
Minimum accepted flit rate = 0.094 (at node 42)
Average accepted flit rate = 0.122297
Maximum accepted flit rate = 0.158 (at node 49)
Average injected packet length = 1.99851
Average accepted packet length = 2.00128
Total in-flight flits = 251 (0 measured)
Class 1:
Minimum packet latency = 8
Average packet latency = 35.7589
Maximum packet latency = 86
Minimum network latency = 8
Average network latency = 35.7338
Maximum network latency = 86
Slowest packet = 1569
Minimum flit latency = 7
Average flit latency = 34.7354
Maximum flit latency = 85
Slowest flit = 3138
Minimum fragmentation = 0
Average fragmentation = 0
Maximum fragmentation = 0
Minimum injected packet rate = 0.015 (at node 41)
Average injected packet rate = 0.0264219
Maximum injected packet rate = 0.035 (at node 51)
Minimum accepted packet rate = 0.017 (at node 30)
Average accepted packet rate = 0.0255937
Maximum accepted packet rate = 0.037 (at node 14)
Minimum injected flit rate = 0.03 (at node 41)
Average injected flit rate = 0.0528281
Maximum injected flit rate = 0.07 (at node 51)
Minimum accepted flit rate = 0.034 (at node 30)
Average accepted flit rate = 0.05125
Maximum accepted flit rate = 0.074 (at node 14)
Average injected packet length = 1.99941
Average accepted packet length = 2.00244
Total in-flight flits = 102 (0 measured)
latency change    = 1
throughput change = 1
latency change    = 1
throughput change = 1
0
Class 0:
Minimum packet latency = 8
Average packet latency = 36.181
Maximum packet latency = 89
Minimum network latency = 8
Average network latency = 36.0108
Maximum network latency = 88
Slowest packet = 6033
Minimum flit latency = 5
Average flit latency = 34.6769
Maximum flit latency = 87
Slowest flit = 12067
Minimum fragmentation = 0
Average fragmentation = 0.612739
Maximum fragmentation = 14
Minimum injected packet rate = 0.049 (at node 46)
Average injected packet rate = 0.06425
Maximum injected packet rate = 0.076 (at node 15)
Minimum accepted packet rate = 0.051 (at node 10)
Average accepted packet rate = 0.0629219
Maximum accepted packet rate = 0.077 (at node 59)
Minimum injected flit rate = 0.098 (at node 46)
Average injected flit rate = 0.128453
Maximum injected flit rate = 0.152 (at node 15)
Minimum accepted flit rate = 0.1025 (at node 10)
Average accepted flit rate = 0.125906
Maximum accepted flit rate = 0.1545 (at node 59)
Average injected packet length = 1.99927
Average accepted packet length = 2.00099
Total in-flight flits = 334 (0 measured)
Class 1:
Minimum packet latency = 8
Average packet latency = 35.4279
Maximum packet latency = 86
Minimum network latency = 8
Average network latency = 35.4056
Maximum network latency = 86
Slowest packet = 1569
Minimum flit latency = 7
Average flit latency = 34.4056
Maximum flit latency = 85
Slowest flit = 3138
Minimum fragmentation = 0
Average fragmentation = 0
Maximum fragmentation = 0
Minimum injected packet rate = 0.0165 (at node 41)
Average injected packet rate = 0.0256094
Maximum injected packet rate = 0.033 (at node 54)
Minimum accepted packet rate = 0.018 (at node 25)
Average accepted packet rate = 0.02525
Maximum accepted packet rate = 0.0335 (at node 42)
Minimum injected flit rate = 0.033 (at node 41)
Average injected flit rate = 0.0512188
Maximum injected flit rate = 0.066 (at node 54)
Minimum accepted flit rate = 0.036 (at node 25)
Average accepted flit rate = 0.0505
Maximum accepted flit rate = 0.067 (at node 42)
Average injected packet length = 2
Average accepted packet length = 2
Total in-flight flits = 92 (0 measured)
latency change    = 0.00356881
throughput change = 0.0286672
latency change    = 0.00934133
throughput change = 0.0148515
0
Class 0:
Minimum packet latency = 8
Average packet latency = 36.1325
Maximum packet latency = 98
Minimum network latency = 8
Average network latency = 35.9708
Maximum network latency = 98
Slowest packet = 11564
Minimum flit latency = 7
Average flit latency = 34.6034
Maximum flit latency = 97
Slowest flit = 23128
Minimum fragmentation = 0
Average fragmentation = 0.671068
Maximum fragmentation = 12
Minimum injected packet rate = 0.052 (at node 63)
Average injected packet rate = 0.0659375
Maximum injected packet rate = 0.08 (at node 16)
Minimum accepted packet rate = 0.052 (at node 52)
Average accepted packet rate = 0.0662656
Maximum accepted packet rate = 0.089 (at node 10)
Minimum injected flit rate = 0.104 (at node 63)
Average injected flit rate = 0.131922
Maximum injected flit rate = 0.16 (at node 16)
Minimum accepted flit rate = 0.104 (at node 52)
Average accepted flit rate = 0.132484
Maximum accepted flit rate = 0.179 (at node 10)
Average injected packet length = 2.00071
Average accepted packet length = 1.99929
Total in-flight flits = 293 (0 measured)
Class 1:
Minimum packet latency = 8
Average packet latency = 36.0623
Maximum packet latency = 88
Minimum network latency = 8
Average network latency = 36.0394
Maximum network latency = 88
Slowest packet = 15553
Minimum flit latency = 7
Average flit latency = 35.0394
Maximum flit latency = 87
Slowest flit = 31106
Minimum fragmentation = 0
Average fragmentation = 0
Maximum fragmentation = 0
Minimum injected packet rate = 0.013 (at node 21)
Average injected packet rate = 0.0245156
Maximum injected packet rate = 0.037 (at node 22)
Minimum accepted packet rate = 0.013 (at node 32)
Average accepted packet rate = 0.0245938
Maximum accepted packet rate = 0.036 (at node 14)
Minimum injected flit rate = 0.026 (at node 21)
Average injected flit rate = 0.0490312
Maximum injected flit rate = 0.074 (at node 22)
Minimum accepted flit rate = 0.026 (at node 32)
Average accepted flit rate = 0.0491875
Maximum accepted flit rate = 0.072 (at node 14)
Average injected packet length = 2
Average accepted packet length = 2
Total in-flight flits = 82 (0 measured)
latency change    = 0.00134262
throughput change = 0.0496521
latency change    = 0.0175905
throughput change = 0.0266836
Warmed up ...Time used is 3000 cycles
1
Class 0:
Minimum packet latency = 8
Average packet latency = 35.8592
Maximum packet latency = 87
Minimum network latency = 8
Average network latency = 35.6823
Maximum network latency = 86
Slowest packet = 21287
Minimum flit latency = 7
Average flit latency = 34.493
Maximum flit latency = 85
Slowest flit = 42574
Minimum fragmentation = 0
Average fragmentation = 0.636066
Maximum fragmentation = 15
Minimum injected packet rate = 0.049 (at node 18)
Average injected packet rate = 0.0646406
Maximum injected packet rate = 0.093 (at node 2)
Minimum accepted packet rate = 0.047 (at node 48)
Average accepted packet rate = 0.0644531
Maximum accepted packet rate = 0.079 (at node 52)
Minimum injected flit rate = 0.099 (at node 18)
Average injected flit rate = 0.12925
Maximum injected flit rate = 0.186 (at node 2)
Minimum accepted flit rate = 0.094 (at node 48)
Average accepted flit rate = 0.128922
Maximum accepted flit rate = 0.159 (at node 59)
Average injected packet length = 1.99952
Average accepted packet length = 2.00024
Total in-flight flits = 316 (316 measured)
Class 1:
Minimum packet latency = 8
Average packet latency = 35.3143
Maximum packet latency = 89
Minimum network latency = 8
Average network latency = 35.2826
Maximum network latency = 87
Slowest packet = 17324
Minimum flit latency = 7
Average flit latency = 34.3891
Maximum flit latency = 86
Slowest flit = 34648
Minimum fragmentation = 0
Average fragmentation = 0
Maximum fragmentation = 0
Minimum injected packet rate = 0.016 (at node 5)
Average injected packet rate = 0.0251719
Maximum injected packet rate = 0.041 (at node 21)
Minimum accepted packet rate = 0.013 (at node 17)
Average accepted packet rate = 0.02475
Maximum accepted packet rate = 0.039 (at node 35)
Minimum injected flit rate = 0.031 (at node 17)
Average injected flit rate = 0.0503125
Maximum injected flit rate = 0.082 (at node 21)
Minimum accepted flit rate = 0.026 (at node 17)
Average accepted flit rate = 0.0495156
Maximum accepted flit rate = 0.078 (at node 35)
Average injected packet length = 1.99876
Average accepted packet length = 2.00063
Total in-flight flits = 135 (135 measured)
latency change    = 0.00762319
throughput change = 0.027633
latency change    = 0.0211795
throughput change = 0.0066267
1
Class 0:
Minimum packet latency = 8
Average packet latency = 36.0585
Maximum packet latency = 88
Minimum network latency = 8
Average network latency = 35.883
Maximum network latency = 88
Slowest packet = 25264
Minimum flit latency = 7
Average flit latency = 34.6185
Maximum flit latency = 87
Slowest flit = 50529
Minimum fragmentation = 0
Average fragmentation = 0.633173
Maximum fragmentation = 19
Minimum injected packet rate = 0.05 (at node 16)
Average injected packet rate = 0.0644219
Maximum injected packet rate = 0.0775 (at node 48)
Minimum accepted packet rate = 0.0515 (at node 24)
Average accepted packet rate = 0.064375
Maximum accepted packet rate = 0.0745 (at node 54)
Minimum injected flit rate = 0.0995 (at node 16)
Average injected flit rate = 0.12882
Maximum injected flit rate = 0.155 (at node 48)
Minimum accepted flit rate = 0.103 (at node 24)
Average accepted flit rate = 0.128758
Maximum accepted flit rate = 0.1485 (at node 54)
Average injected packet length = 1.99964
Average accepted packet length = 2.00012
Total in-flight flits = 304 (304 measured)
Class 1:
Minimum packet latency = 8
Average packet latency = 35.3683
Maximum packet latency = 89
Minimum network latency = 8
Average network latency = 35.3418
Maximum network latency = 87
Slowest packet = 17324
Minimum flit latency = 7
Average flit latency = 34.3931
Maximum flit latency = 86
Slowest flit = 34648
Minimum fragmentation = 0
Average fragmentation = 0
Maximum fragmentation = 0
Minimum injected packet rate = 0.0145 (at node 13)
Average injected packet rate = 0.0251797
Maximum injected packet rate = 0.035 (at node 21)
Minimum accepted packet rate = 0.0155 (at node 17)
Average accepted packet rate = 0.0251406
Maximum accepted packet rate = 0.0325 (at node 1)
Minimum injected flit rate = 0.029 (at node 13)
Average injected flit rate = 0.0503594
Maximum injected flit rate = 0.07 (at node 21)
Minimum accepted flit rate = 0.031 (at node 17)
Average accepted flit rate = 0.0502969
Maximum accepted flit rate = 0.065 (at node 1)
Average injected packet length = 2
Average accepted packet length = 2.00062
Total in-flight flits = 90 (90 measured)
latency change    = 0.00552728
throughput change = 0.00127419
latency change    = 0.00152536
throughput change = 0.0155328
1
Class 0:
Minimum packet latency = 8
Average packet latency = 36.1129
Maximum packet latency = 88
Minimum network latency = 8
Average network latency = 35.9365
Maximum network latency = 88
Slowest packet = 25264
Minimum flit latency = 7
Average flit latency = 34.6433
Maximum flit latency = 87
Slowest flit = 50529
Minimum fragmentation = 0
Average fragmentation = 0.637268
Maximum fragmentation = 19
Minimum injected packet rate = 0.0523333 (at node 16)
Average injected packet rate = 0.0647188
Maximum injected packet rate = 0.074 (at node 17)
Minimum accepted packet rate = 0.0546667 (at node 48)
Average accepted packet rate = 0.0646719
Maximum accepted packet rate = 0.0746667 (at node 13)
Minimum injected flit rate = 0.104667 (at node 16)
Average injected flit rate = 0.129432
Maximum injected flit rate = 0.148 (at node 17)
Minimum accepted flit rate = 0.109333 (at node 48)
Average accepted flit rate = 0.129385
Maximum accepted flit rate = 0.149667 (at node 13)
Average injected packet length = 1.99992
Average accepted packet length = 2.00064
Total in-flight flits = 303 (303 measured)
Class 1:
Minimum packet latency = 8
Average packet latency = 35.3448
Maximum packet latency = 89
Minimum network latency = 8
Average network latency = 35.317
Maximum network latency = 87
Slowest packet = 17324
Minimum flit latency = 7
Average flit latency = 34.352
Maximum flit latency = 86
Slowest flit = 34648
Minimum fragmentation = 0
Average fragmentation = 0
Maximum fragmentation = 0
Minimum injected packet rate = 0.017 (at node 13)
Average injected packet rate = 0.0254115
Maximum injected packet rate = 0.0313333 (at node 39)
Minimum accepted packet rate = 0.019 (at node 32)
Average accepted packet rate = 0.0253177
Maximum accepted packet rate = 0.0306667 (at node 41)
Minimum injected flit rate = 0.034 (at node 13)
Average injected flit rate = 0.0508177
Maximum injected flit rate = 0.0626667 (at node 39)
Minimum accepted flit rate = 0.038 (at node 32)
Average accepted flit rate = 0.0506458
Maximum accepted flit rate = 0.0613333 (at node 41)
Average injected packet length = 1.9998
Average accepted packet length = 2.00041
Total in-flight flits = 116 (116 measured)
latency change    = 0.00150737
throughput change = 0.00485066
latency change    = 0.000663709
throughput change = 0.00689017
Draining all recorded packets ...
Draining remaining packets ...
Time taken is 6131 cycles
====== Traffic class 0 ======
Overall minimum packet latency = 8 (1 samples)
Overall average packet latency = 36.1742 (1 samples)
Overall maximum packet latency = 88 (1 samples)
Overall minimum network latency = 8 (1 samples)
Overall average network latency = 35.9973 (1 samples)
Overall maximum network latency = 88 (1 samples)
Overall minimum flit latency = 7 (1 samples)
Overall average flit latency = 34.7045 (1 samples)
Overall maximum flit latency = 87 (1 samples)
Overall minimum fragmentation = 0 (1 samples)
Overall average fragmentation = 0.638178 (1 samples)
Overall maximum fragmentation = 19 (1 samples)
Overall minimum injected packet rate = 0.0523333 (1 samples)
Overall average injected packet rate = 0.0647188 (1 samples)
Overall maximum injected packet rate = 0.074 (1 samples)
Overall minimum accepted packet rate = 0.0546667 (1 samples)
Overall average accepted packet rate = 0.0646719 (1 samples)
Overall maximum accepted packet rate = 0.0746667 (1 samples)
Overall minimum injected flit rate = 0.104667 (1 samples)
Overall average injected flit rate = 0.129432 (1 samples)
Overall maximum injected flit rate = 0.148 (1 samples)
Overall minimum accepted flit rate = 0.109333 (1 samples)
Overall average accepted flit rate = 0.129385 (1 samples)
Overall maximum accepted flit rate = 0.149667 (1 samples)
Overall average injected packet size = 1.99992 (1 samples)
Overall average accepted packet size = 2.00064 (1 samples)
Overall average hops = 6.25447 (1 samples)
====== Traffic class 1 ======
Overall minimum packet latency = 8 (1 samples)
Overall average packet latency = 35.3989 (1 samples)
Overall maximum packet latency = 89 (1 samples)
Overall minimum network latency = 8 (1 samples)
Overall average network latency = 35.371 (1 samples)
Overall maximum network latency = 87 (1 samples)
Overall minimum flit latency = 7 (1 samples)
Overall average flit latency = 34.4207 (1 samples)
Overall maximum flit latency = 86 (1 samples)
Overall minimum fragmentation = 0 (1 samples)
Overall average fragmentation = 0 (1 samples)
Overall maximum fragmentation = 0 (1 samples)
Overall minimum injected packet rate = 0.017 (1 samples)
Overall average injected packet rate = 0.0254115 (1 samples)
Overall maximum injected packet rate = 0.0313333 (1 samples)
Overall minimum accepted packet rate = 0.019 (1 samples)
Overall average accepted packet rate = 0.0253177 (1 samples)
Overall maximum accepted packet rate = 0.0306667 (1 samples)
Overall minimum injected flit rate = 0.034 (1 samples)
Overall average injected flit rate = 0.0508177 (1 samples)
Overall maximum injected flit rate = 0.0626667 (1 samples)
Overall minimum accepted flit rate = 0.038 (1 samples)
Overall average accepted flit rate = 0.0506458 (1 samples)
Overall maximum accepted flit rate = 0.0613333 (1 samples)
Overall average injected packet size = 1.9998 (1 samples)
Overall average accepted packet size = 2.00041 (1 samples)
Overall average hops = 6.25456 (1 samples)
Total run time 13.231
