BEGIN Configuration File: ./examples/project_inputs/config-iqevc_tp-uniform_c1ir-0.05_c0ir-0.15_prio-select
//
// EVC Router Config File -         
//
// Jason Deng, Mike Wang        
//        

//
// Flow control
//

num_vcs     = 5;
vc_buf_size = 6;

wait_for_tail_credit = 0;

vc_allocator = select;
sw_allocator = select;
alloc_iters  = 2;

credit_delay   = 2;
routing_delay  = 1;
vc_alloc_delay = 1;
sw_alloc_delay = 1;
st_final_delay = 1;

input_speedup     = 1;
output_speedup    = 1;
internal_speedup  = 1.0;

//
// Traffic
//

sim_type = latency;

warmup_periods = 3;
sample_period  = 1000;
sim_count = 1;

//
//topoogy
//

topology = mesh;
k  = 8;
n  = 2;

//
// Routing
//

router = iqevc;
routing_function = dor;

packet_size = 2;
use_read_write = 0;

traffic  = uniform;
injection_rate = {0.15,0.05};
injection_rate_uses_flits = 1;

classes = 2;
class_priority = {0,1};
priority = class;

noq = 0;
hold_switch_for_packet = 0;
vc_prioritize_empty = 0;

//
// express virtual channel settings
//

evc = 1;
num_evcs = 1;
evc_prioritized_class = 1;
selective_vc_request = 1;
hold_switch_for_evc_packet = 1;
evc_next_route = 0;

END Configuration File: ./examples/project_inputs/config-iqevc_tp-uniform_c1ir-0.05_c0ir-0.15_prio-select
0
Class 0:
Minimum packet latency = 8
Average packet latency = 36.2082
Maximum packet latency = 89
Minimum network latency = 8
Average network latency = 36.0183
Maximum network latency = 89
Slowest packet = 1005
Minimum flit latency = 7
Average flit latency = 34.6403
Maximum flit latency = 88
Slowest flit = 2010
Minimum fragmentation = 0
Average fragmentation = 0.708778
Maximum fragmentation = 15
Minimum injected packet rate = 0.058 (at node 50)
Average injected packet rate = 0.07425
Maximum injected packet rate = 0.094 (at node 54)
Minimum accepted packet rate = 0.056 (at node 29)
Average accepted packet rate = 0.0717344
Maximum accepted packet rate = 0.087 (at node 16)
Minimum injected flit rate = 0.116 (at node 50)
Average injected flit rate = 0.148453
Maximum injected flit rate = 0.188 (at node 54)
Minimum accepted flit rate = 0.113 (at node 29)
Average accepted flit rate = 0.143594
Maximum accepted flit rate = 0.177 (at node 49)
Average injected packet length = 1.99937
Average accepted packet length = 2.00174
Total in-flight flits = 314 (0 measured)
Class 1:
Minimum packet latency = 8
Average packet latency = 35.3061
Maximum packet latency = 81
Minimum network latency = 8
Average network latency = 35.2842
Maximum network latency = 81
Slowest packet = 5672
Minimum flit latency = 7
Average flit latency = 34.2824
Maximum flit latency = 80
Slowest flit = 11344
Minimum fragmentation = 0
Average fragmentation = 0
Maximum fragmentation = 0
Minimum injected packet rate = 0.015 (at node 41)
Average injected packet rate = 0.0251563
Maximum injected packet rate = 0.036 (at node 1)
Minimum accepted packet rate = 0.015 (at node 30)
Average accepted packet rate = 0.0242969
Maximum accepted packet rate = 0.041 (at node 47)
Minimum injected flit rate = 0.03 (at node 41)
Average injected flit rate = 0.0502969
Maximum injected flit rate = 0.072 (at node 1)
Minimum accepted flit rate = 0.03 (at node 30)
Average accepted flit rate = 0.0486406
Maximum accepted flit rate = 0.082 (at node 47)
Average injected packet length = 1.99938
Average accepted packet length = 2.00193
Total in-flight flits = 107 (0 measured)
latency change    = 1
throughput change = 1
latency change    = 1
throughput change = 1
0
Class 0:
Minimum packet latency = 8
Average packet latency = 36.2927
Maximum packet latency = 89
Minimum network latency = 8
Average network latency = 36.0999
Maximum network latency = 89
Slowest packet = 1005
Minimum flit latency = 5
Average flit latency = 34.7163
Maximum flit latency = 88
Slowest flit = 2010
Minimum fragmentation = 0
Average fragmentation = 0.709392
Maximum fragmentation = 16
Minimum injected packet rate = 0.062 (at node 53)
Average injected packet rate = 0.0747422
Maximum injected packet rate = 0.0925 (at node 11)
Minimum accepted packet rate = 0.0585 (at node 36)
Average accepted packet rate = 0.0732031
Maximum accepted packet rate = 0.084 (at node 50)
Minimum injected flit rate = 0.124 (at node 53)
Average injected flit rate = 0.149445
Maximum injected flit rate = 0.1845 (at node 11)
Minimum accepted flit rate = 0.1175 (at node 36)
Average accepted flit rate = 0.146477
Maximum accepted flit rate = 0.168 (at node 50)
Average injected packet length = 1.99948
Average accepted packet length = 2.00096
Total in-flight flits = 385 (0 measured)
Class 1:
Minimum packet latency = 8
Average packet latency = 35.3901
Maximum packet latency = 86
Minimum network latency = 8
Average network latency = 35.3642
Maximum network latency = 86
Slowest packet = 8039
Minimum flit latency = 7
Average flit latency = 34.3654
Maximum flit latency = 85
Slowest flit = 16078
Minimum fragmentation = 0
Average fragmentation = 0
Maximum fragmentation = 0
Minimum injected packet rate = 0.0185 (at node 14)
Average injected packet rate = 0.0248906
Maximum injected packet rate = 0.034 (at node 4)
Minimum accepted packet rate = 0.016 (at node 41)
Average accepted packet rate = 0.0245156
Maximum accepted packet rate = 0.037 (at node 47)
Minimum injected flit rate = 0.037 (at node 14)
Average injected flit rate = 0.0497812
Maximum injected flit rate = 0.068 (at node 4)
Minimum accepted flit rate = 0.032 (at node 41)
Average accepted flit rate = 0.0490469
Maximum accepted flit rate = 0.074 (at node 47)
Average injected packet length = 2
Average accepted packet length = 2.00064
Total in-flight flits = 94 (0 measured)
latency change    = 0.00232855
throughput change = 0.019681
latency change    = 0.00237208
throughput change = 0.00828289
0
Class 0:
Minimum packet latency = 8
Average packet latency = 36.7269
Maximum packet latency = 87
Minimum network latency = 8
Average network latency = 36.553
Maximum network latency = 87
Slowest packet = 14133
Minimum flit latency = 5
Average flit latency = 35.1512
Maximum flit latency = 86
Slowest flit = 28267
Minimum fragmentation = 0
Average fragmentation = 0.749369
Maximum fragmentation = 15
Minimum injected packet rate = 0.055 (at node 59)
Average injected packet rate = 0.0737344
Maximum injected packet rate = 0.102 (at node 47)
Minimum accepted packet rate = 0.061 (at node 15)
Average accepted packet rate = 0.07425
Maximum accepted packet rate = 0.09 (at node 10)
Minimum injected flit rate = 0.11 (at node 59)
Average injected flit rate = 0.147469
Maximum injected flit rate = 0.204 (at node 47)
Minimum accepted flit rate = 0.121 (at node 25)
Average accepted flit rate = 0.148531
Maximum accepted flit rate = 0.181 (at node 10)
Average injected packet length = 2
Average accepted packet length = 2.00042
Total in-flight flits = 317 (0 measured)
Class 1:
Minimum packet latency = 8
Average packet latency = 35.7357
Maximum packet latency = 80
Minimum network latency = 8
Average network latency = 35.7109
Maximum network latency = 80
Slowest packet = 12276
Minimum flit latency = 7
Average flit latency = 34.7093
Maximum flit latency = 79
Slowest flit = 24552
Minimum fragmentation = 0
Average fragmentation = 0
Maximum fragmentation = 0
Minimum injected packet rate = 0.015 (at node 36)
Average injected packet rate = 0.02475
Maximum injected packet rate = 0.036 (at node 23)
Minimum accepted packet rate = 0.014 (at node 42)
Average accepted packet rate = 0.0245938
Maximum accepted packet rate = 0.034 (at node 8)
Minimum injected flit rate = 0.03 (at node 36)
Average injected flit rate = 0.0495
Maximum injected flit rate = 0.072 (at node 23)
Minimum accepted flit rate = 0.028 (at node 42)
Average accepted flit rate = 0.0491875
Maximum accepted flit rate = 0.068 (at node 8)
Average injected packet length = 2
Average accepted packet length = 2
Total in-flight flits = 114 (0 measured)
latency change    = 0.0118199
throughput change = 0.0138334
latency change    = 0.00967234
throughput change = 0.00285896
Warmed up ...Time used is 3000 cycles
1
Class 0:
Minimum packet latency = 8
Average packet latency = 35.8715
Maximum packet latency = 92
Minimum network latency = 8
Average network latency = 35.6942
Maximum network latency = 90
Slowest packet = 24391
Minimum flit latency = 5
Average flit latency = 34.5134
Maximum flit latency = 89
Slowest flit = 48783
Minimum fragmentation = 0
Average fragmentation = 0.700916
Maximum fragmentation = 12
Minimum injected packet rate = 0.061 (at node 37)
Average injected packet rate = 0.0743906
Maximum injected packet rate = 0.088 (at node 63)
Minimum accepted packet rate = 0.052 (at node 12)
Average accepted packet rate = 0.0741875
Maximum accepted packet rate = 0.089 (at node 10)
Minimum injected flit rate = 0.122 (at node 37)
Average injected flit rate = 0.148781
Maximum injected flit rate = 0.176 (at node 63)
Minimum accepted flit rate = 0.104 (at node 12)
Average accepted flit rate = 0.148391
Maximum accepted flit rate = 0.178 (at node 50)
Average injected packet length = 2
Average accepted packet length = 2.00021
Total in-flight flits = 342 (342 measured)
Class 1:
Minimum packet latency = 8
Average packet latency = 35.7264
Maximum packet latency = 79
Minimum network latency = 8
Average network latency = 35.6975
Maximum network latency = 79
Slowest packet = 21403
Minimum flit latency = 7
Average flit latency = 34.8295
Maximum flit latency = 78
Slowest flit = 42806
Minimum fragmentation = 0
Average fragmentation = 0
Maximum fragmentation = 0
Minimum injected packet rate = 0.014 (at node 5)
Average injected packet rate = 0.0253594
Maximum injected packet rate = 0.037 (at node 8)
Minimum accepted packet rate = 0.016 (at node 43)
Average accepted packet rate = 0.0252344
Maximum accepted packet rate = 0.034 (at node 14)
Minimum injected flit rate = 0.028 (at node 5)
Average injected flit rate = 0.0506719
Maximum injected flit rate = 0.074 (at node 8)
Minimum accepted flit rate = 0.032 (at node 43)
Average accepted flit rate = 0.0505
Maximum accepted flit rate = 0.068 (at node 14)
Average injected packet length = 1.99815
Average accepted packet length = 2.00124
Total in-flight flits = 128 (128 measured)
latency change    = 0.0238446
throughput change = 0.000947668
latency change    = 0.000260544
throughput change = 0.0259901
1
Class 0:
Minimum packet latency = 8
Average packet latency = 36.0396
Maximum packet latency = 92
Minimum network latency = 8
Average network latency = 35.8504
Maximum network latency = 90
Slowest packet = 24391
Minimum flit latency = 5
Average flit latency = 34.5628
Maximum flit latency = 89
Slowest flit = 48783
Minimum fragmentation = 0
Average fragmentation = 0.716413
Maximum fragmentation = 15
Minimum injected packet rate = 0.062 (at node 22)
Average injected packet rate = 0.0743672
Maximum injected packet rate = 0.0915 (at node 11)
Minimum accepted packet rate = 0.0555 (at node 28)
Average accepted packet rate = 0.0742031
Maximum accepted packet rate = 0.0865 (at node 19)
Minimum injected flit rate = 0.1235 (at node 22)
Average injected flit rate = 0.148727
Maximum injected flit rate = 0.1825 (at node 11)
Minimum accepted flit rate = 0.111 (at node 28)
Average accepted flit rate = 0.148375
Maximum accepted flit rate = 0.173 (at node 19)
Average injected packet length = 1.99989
Average accepted packet length = 1.99958
Total in-flight flits = 363 (363 measured)
Class 1:
Minimum packet latency = 8
Average packet latency = 35.958
Maximum packet latency = 85
Minimum network latency = 8
Average network latency = 35.9328
Maximum network latency = 85
Slowest packet = 31056
Minimum flit latency = 7
Average flit latency = 34.993
Maximum flit latency = 84
Slowest flit = 62112
Minimum fragmentation = 0
Average fragmentation = 0
Maximum fragmentation = 0
Minimum injected packet rate = 0.0175 (at node 55)
Average injected packet rate = 0.0252188
Maximum injected packet rate = 0.035 (at node 8)
Minimum accepted packet rate = 0.016 (at node 5)
Average accepted packet rate = 0.0252188
Maximum accepted packet rate = 0.0375 (at node 53)
Minimum injected flit rate = 0.035 (at node 55)
Average injected flit rate = 0.0504297
Maximum injected flit rate = 0.07 (at node 8)
Minimum accepted flit rate = 0.0325 (at node 5)
Average accepted flit rate = 0.0504297
Maximum accepted flit rate = 0.075 (at node 53)
Average injected packet length = 1.99969
Average accepted packet length = 1.99969
Total in-flight flits = 115 (115 measured)
latency change    = 0.00466515
throughput change = 0.000105307
latency change    = 0.00644215
throughput change = 0.00139427
1
Class 0:
Minimum packet latency = 8
Average packet latency = 36.1965
Maximum packet latency = 92
Minimum network latency = 8
Average network latency = 36.002
Maximum network latency = 90
Slowest packet = 24391
Minimum flit latency = 5
Average flit latency = 34.6614
Maximum flit latency = 89
Slowest flit = 48783
Minimum fragmentation = 0
Average fragmentation = 0.751934
Maximum fragmentation = 16
Minimum injected packet rate = 0.0653333 (at node 32)
Average injected packet rate = 0.0750938
Maximum injected packet rate = 0.0926667 (at node 11)
Minimum accepted packet rate = 0.062 (at node 28)
Average accepted packet rate = 0.0749271
Maximum accepted packet rate = 0.0873333 (at node 19)
Minimum injected flit rate = 0.130667 (at node 32)
Average injected flit rate = 0.150188
Maximum injected flit rate = 0.185333 (at node 11)
Minimum accepted flit rate = 0.124333 (at node 28)
Average accepted flit rate = 0.149839
Maximum accepted flit rate = 0.174667 (at node 19)
Average injected packet length = 2
Average accepted packet length = 1.99979
Total in-flight flits = 384 (384 measured)
Class 1:
Minimum packet latency = 8
Average packet latency = 35.8056
Maximum packet latency = 85
Minimum network latency = 8
Average network latency = 35.7807
Maximum network latency = 85
Slowest packet = 31056
Minimum flit latency = 7
Average flit latency = 34.8262
Maximum flit latency = 84
Slowest flit = 62112
Minimum fragmentation = 0
Average fragmentation = 0
Maximum fragmentation = 0
Minimum injected packet rate = 0.0196667 (at node 55)
Average injected packet rate = 0.025375
Maximum injected packet rate = 0.035 (at node 50)
Minimum accepted packet rate = 0.0186667 (at node 5)
Average accepted packet rate = 0.0253854
Maximum accepted packet rate = 0.0343333 (at node 53)
Minimum injected flit rate = 0.0393333 (at node 55)
Average injected flit rate = 0.0507448
Maximum injected flit rate = 0.07 (at node 50)
Minimum accepted flit rate = 0.0373333 (at node 5)
Average accepted flit rate = 0.0507708
Maximum accepted flit rate = 0.0686667 (at node 53)
Average injected packet length = 1.99979
Average accepted packet length = 2
Total in-flight flits = 110 (110 measured)
latency change    = 0.00433236
throughput change = 0.00976746
latency change    = 0.00425621
throughput change = 0.00671933
Draining all recorded packets ...
Draining remaining packets ...
Time taken is 6137 cycles
====== Traffic class 0 ======
Overall minimum packet latency = 8 (1 samples)
Overall average packet latency = 36.2955 (1 samples)
Overall maximum packet latency = 92 (1 samples)
Overall minimum network latency = 8 (1 samples)
Overall average network latency = 36.0997 (1 samples)
Overall maximum network latency = 90 (1 samples)
Overall minimum flit latency = 5 (1 samples)
Overall average flit latency = 34.7572 (1 samples)
Overall maximum flit latency = 89 (1 samples)
Overall minimum fragmentation = 0 (1 samples)
Overall average fragmentation = 0.755306 (1 samples)
Overall maximum fragmentation = 16 (1 samples)
Overall minimum injected packet rate = 0.0653333 (1 samples)
Overall average injected packet rate = 0.0750938 (1 samples)
Overall maximum injected packet rate = 0.0926667 (1 samples)
Overall minimum accepted packet rate = 0.062 (1 samples)
Overall average accepted packet rate = 0.0749271 (1 samples)
Overall maximum accepted packet rate = 0.0873333 (1 samples)
Overall minimum injected flit rate = 0.130667 (1 samples)
Overall average injected flit rate = 0.150188 (1 samples)
Overall maximum injected flit rate = 0.185333 (1 samples)
Overall minimum accepted flit rate = 0.124333 (1 samples)
Overall average accepted flit rate = 0.149839 (1 samples)
Overall maximum accepted flit rate = 0.174667 (1 samples)
Overall average injected packet size = 2 (1 samples)
Overall average accepted packet size = 1.99979 (1 samples)
Overall average hops = 6.20988 (1 samples)
====== Traffic class 1 ======
Overall minimum packet latency = 8 (1 samples)
Overall average packet latency = 35.8676 (1 samples)
Overall maximum packet latency = 85 (1 samples)
Overall minimum network latency = 8 (1 samples)
Overall average network latency = 35.8424 (1 samples)
Overall maximum network latency = 85 (1 samples)
Overall minimum flit latency = 7 (1 samples)
Overall average flit latency = 34.8715 (1 samples)
Overall maximum flit latency = 84 (1 samples)
Overall minimum fragmentation = 0 (1 samples)
Overall average fragmentation = 0 (1 samples)
Overall maximum fragmentation = 0 (1 samples)
Overall minimum injected packet rate = 0.0196667 (1 samples)
Overall average injected packet rate = 0.025375 (1 samples)
Overall maximum injected packet rate = 0.035 (1 samples)
Overall minimum accepted packet rate = 0.0186667 (1 samples)
Overall average accepted packet rate = 0.0253854 (1 samples)
Overall maximum accepted packet rate = 0.0343333 (1 samples)
Overall minimum injected flit rate = 0.0393333 (1 samples)
Overall average injected flit rate = 0.0507448 (1 samples)
Overall maximum injected flit rate = 0.07 (1 samples)
Overall minimum accepted flit rate = 0.0373333 (1 samples)
Overall average accepted flit rate = 0.0507708 (1 samples)
Overall maximum accepted flit rate = 0.0686667 (1 samples)
Overall average injected packet size = 1.99979 (1 samples)
Overall average accepted packet size = 2 (1 samples)
Overall average hops = 6.32594 (1 samples)
Total run time 5.28331
