BEGIN Configuration File: ./examples/project_inputs/config-iqevc_tp-transpose_c1ir-0.05_c0ir-0.25
//
// EVC Router Config File -         
//
// Jason Deng, Mike Wang        
//        

//
// Flow control
//

num_vcs     = 5;
vc_buf_size = 6;

wait_for_tail_credit = 0;

vc_allocator = select;
sw_allocator = select;
alloc_iters  = 2;

credit_delay   = 2;
routing_delay  = 1;
vc_alloc_delay = 1;
sw_alloc_delay = 1;
st_final_delay = 1;

input_speedup     = 1;
output_speedup    = 1;
internal_speedup  = 1.0;

//
// Traffic
//

sim_type = latency;

warmup_periods = 3;
sample_period  = 1000;
sim_count = 1;

//
//topoogy
//

topology = mesh;
k  = 8;
n  = 2;

//
// Routing
//

router = iqevc;
routing_function = dor;

packet_size = 2;
use_read_write = 0;

traffic  = transpose;
injection_rate = {0.25,0.05};
injection_rate_uses_flits = 1;

classes = 2;
class_priority = {0,1};
priority = class;

noq = 0;
hold_switch_for_packet = 0;
vc_prioritize_empty = 0;

//
// express virtual channel settings
//

evc = 1;
num_evcs = 1;
evc_prioritized_class = 1;
selective_vc_request = 1;
hold_switch_for_evc_packet = 1;
evc_next_route = 1;

END Configuration File: ./examples/project_inputs/config-iqevc_tp-transpose_c1ir-0.05_c0ir-0.25
0
Class 0:
Minimum packet latency = 8
Average packet latency = 87.3661
Maximum packet latency = 863
Minimum network latency = 8
Average network latency = 85.0467
Maximum network latency = 863
Slowest packet = 879
Minimum flit latency = 5
Average flit latency = 83.2223
Maximum flit latency = 862
Slowest flit = 1758
Minimum fragmentation = 0
Average fragmentation = 1.51391
Maximum fragmentation = 48
Minimum injected packet rate = 0.027 (at node 6)
Average injected packet rate = 0.0980313
Maximum injected packet rate = 0.145 (at node 1)
Minimum accepted packet rate = 0.01 (at node 15)
Average accepted packet rate = 0.08425
Maximum accepted packet rate = 0.14 (at node 8)
Minimum injected flit rate = 0.054 (at node 6)
Average injected flit rate = 0.195875
Maximum injected flit rate = 0.29 (at node 1)
Minimum accepted flit rate = 0.02 (at node 15)
Average accepted flit rate = 0.168734
Maximum accepted flit rate = 0.281 (at node 8)
Average injected packet length = 1.99809
Average accepted packet length = 2.00278
Total in-flight flits = 1799 (0 measured)
Class 1:
Minimum packet latency = 8
Average packet latency = 67.1316
Maximum packet latency = 656
Minimum network latency = 8
Average network latency = 62.3767
Maximum network latency = 650
Slowest packet = 1776
Minimum flit latency = 7
Average flit latency = 61.0571
Maximum flit latency = 649
Slowest flit = 3934
Minimum fragmentation = 0
Average fragmentation = 0
Maximum fragmentation = 0
Minimum injected packet rate = 0.009 (at node 61)
Average injected packet rate = 0.0238594
Maximum injected packet rate = 0.035 (at node 8)
Minimum accepted packet rate = 0.004 (at node 7)
Average accepted packet rate = 0.0207813
Maximum accepted packet rate = 0.033 (at node 1)
Minimum injected flit rate = 0.018 (at node 61)
Average injected flit rate = 0.0476562
Maximum injected flit rate = 0.07 (at node 8)
Minimum accepted flit rate = 0.008 (at node 7)
Average accepted flit rate = 0.041625
Maximum accepted flit rate = 0.066 (at node 1)
Average injected packet length = 1.99738
Average accepted packet length = 2.00301
Total in-flight flits = 406 (0 measured)
latency change    = 1
throughput change = 1
latency change    = 1
throughput change = 1
0
Class 0:
Minimum packet latency = 8
Average packet latency = 137.956
Maximum packet latency = 1770
Minimum network latency = 8
Average network latency = 111.653
Maximum network latency = 1769
Slowest packet = 1307
Minimum flit latency = 5
Average flit latency = 109.62
Maximum flit latency = 1768
Slowest flit = 2614
Minimum fragmentation = 0
Average fragmentation = 1.67786
Maximum fragmentation = 59
Minimum injected packet rate = 0.0145 (at node 57)
Average injected packet rate = 0.0922188
Maximum injected packet rate = 0.139 (at node 54)
Minimum accepted packet rate = 0.007 (at node 15)
Average accepted packet rate = 0.0849063
Maximum accepted packet rate = 0.1385 (at node 54)
Minimum injected flit rate = 0.029 (at node 57)
Average injected flit rate = 0.184383
Maximum injected flit rate = 0.278 (at node 54)
Minimum accepted flit rate = 0.014 (at node 15)
Average accepted flit rate = 0.169906
Maximum accepted flit rate = 0.277 (at node 54)
Average injected packet length = 1.99941
Average accepted packet length = 2.0011
Total in-flight flits = 1916 (0 measured)
Class 1:
Minimum packet latency = 8
Average packet latency = 108.014
Maximum packet latency = 1542
Minimum network latency = 8
Average network latency = 89.9385
Maximum network latency = 1522
Slowest packet = 1963
Minimum flit latency = 7
Average flit latency = 88.443
Maximum flit latency = 1521
Slowest flit = 3926
Minimum fragmentation = 0
Average fragmentation = 0
Maximum fragmentation = 0
Minimum injected packet rate = 0.0065 (at node 7)
Average injected packet rate = 0.0244219
Maximum injected packet rate = 0.033 (at node 15)
Minimum accepted packet rate = 0.0025 (at node 56)
Average accepted packet rate = 0.0229844
Maximum accepted packet rate = 0.0325 (at node 57)
Minimum injected flit rate = 0.013 (at node 7)
Average injected flit rate = 0.0487969
Maximum injected flit rate = 0.066 (at node 15)
Minimum accepted flit rate = 0.005 (at node 56)
Average accepted flit rate = 0.0459766
Maximum accepted flit rate = 0.065 (at node 57)
Average injected packet length = 1.99808
Average accepted packet length = 2.00034
Total in-flight flits = 389 (0 measured)
latency change    = 0.366709
throughput change = 0.00689719
latency change    = 0.378493
throughput change = 0.0946474
0
Class 0:
Minimum packet latency = 8
Average packet latency = 295.215
Maximum packet latency = 2875
Minimum network latency = 8
Average network latency = 153.867
Maximum network latency = 2875
Slowest packet = 1086
Minimum flit latency = 5
Average flit latency = 151.624
Maximum flit latency = 2874
Slowest flit = 2172
Minimum fragmentation = 0
Average fragmentation = 1.91953
Maximum fragmentation = 67
Minimum injected packet rate = 0 (at node 5)
Average injected packet rate = 0.0830469
Maximum injected packet rate = 0.144 (at node 1)
Minimum accepted packet rate = 0.002 (at node 48)
Average accepted packet rate = 0.0827187
Maximum accepted packet rate = 0.141 (at node 35)
Minimum injected flit rate = 0 (at node 5)
Average injected flit rate = 0.166078
Maximum injected flit rate = 0.288 (at node 1)
Minimum accepted flit rate = 0.004 (at node 48)
Average accepted flit rate = 0.165531
Maximum accepted flit rate = 0.281 (at node 35)
Average injected packet length = 1.99981
Average accepted packet length = 2.00113
Total in-flight flits = 1950 (0 measured)
Class 1:
Minimum packet latency = 8
Average packet latency = 165.361
Maximum packet latency = 2463
Minimum network latency = 8
Average network latency = 122.45
Maximum network latency = 2380
Slowest packet = 3829
Minimum flit latency = 7
Average flit latency = 120.84
Maximum flit latency = 2379
Slowest flit = 7658
Minimum fragmentation = 0
Average fragmentation = 0
Maximum fragmentation = 0
Minimum injected packet rate = 0.015 (at node 13)
Average injected packet rate = 0.0252656
Maximum injected packet rate = 0.05 (at node 7)
Minimum accepted packet rate = 0.011 (at node 22)
Average accepted packet rate = 0.0256719
Maximum accepted packet rate = 0.057 (at node 56)
Minimum injected flit rate = 0.03 (at node 13)
Average injected flit rate = 0.0505469
Maximum injected flit rate = 0.1 (at node 7)
Minimum accepted flit rate = 0.022 (at node 22)
Average accepted flit rate = 0.0513438
Maximum accepted flit rate = 0.114 (at node 56)
Average injected packet length = 2.00062
Average accepted packet length = 2
Total in-flight flits = 345 (0 measured)
latency change    = 0.532695
throughput change = 0.0264301
latency change    = 0.346797
throughput change = 0.104534
Average latency for class 0 exceeded 500 cycles. Aborting simulation.
Too many sample periods needed to converge
Simulation unstable, ending ...
Total run time 6.03104
