BEGIN Configuration File: ./examples/project_inputs/config-iqevc_tp-transpose_c1ir-0.05_c0ir-0.13
//
// EVC Router Config File -         
//
// Jason Deng, Mike Wang        
//        

//
// Flow control
//

num_vcs     = 5;
vc_buf_size = 6;

wait_for_tail_credit = 0;

vc_allocator = select;
sw_allocator = select;
alloc_iters  = 2;

credit_delay   = 2;
routing_delay  = 1;
vc_alloc_delay = 1;
sw_alloc_delay = 1;
st_final_delay = 1;

input_speedup     = 1;
output_speedup    = 1;
internal_speedup  = 1.0;

//
// Traffic
//

sim_type = latency;

warmup_periods = 3;
sample_period  = 1000;
sim_count = 1;

//
//topoogy
//

topology = mesh;
k  = 8;
n  = 2;

//
// Routing
//

router = iqevc;
routing_function = dor;

packet_size = 2;
use_read_write = 0;

traffic  = transpose;
injection_rate = {0.13,0.05};
injection_rate_uses_flits = 1;

classes = 2;
class_priority = {0,1};
priority = class;

noq = 0;
hold_switch_for_packet = 0;
vc_prioritize_empty = 0;

//
// express virtual channel settings
//

evc = 1;
num_evcs = 1;
evc_prioritized_class = 1;
selective_vc_request = 1;
hold_switch_for_evc_packet = 1;
evc_next_route = 1;

END Configuration File: ./examples/project_inputs/config-iqevc_tp-transpose_c1ir-0.05_c0ir-0.13
0
Class 0:
Minimum packet latency = 8
Average packet latency = 67.3733
Maximum packet latency = 624
Minimum network latency = 8
Average network latency = 67.1963
Maximum network latency = 624
Slowest packet = 2072
Minimum flit latency = 5
Average flit latency = 65.5454
Maximum flit latency = 623
Slowest flit = 4144
Minimum fragmentation = 0
Average fragmentation = 1.43541
Maximum fragmentation = 103
Minimum injected packet rate = 0.046 (at node 16)
Average injected packet rate = 0.0629688
Maximum injected packet rate = 0.08 (at node 2)
Minimum accepted packet rate = 0.022 (at node 56)
Average accepted packet rate = 0.056125
Maximum accepted packet rate = 0.076 (at node 16)
Minimum injected flit rate = 0.091 (at node 16)
Average injected flit rate = 0.125797
Maximum injected flit rate = 0.16 (at node 2)
Minimum accepted flit rate = 0.044 (at node 56)
Average accepted flit rate = 0.112437
Maximum accepted flit rate = 0.152 (at node 16)
Average injected packet length = 1.99777
Average accepted packet length = 2.00334
Total in-flight flits = 868 (0 measured)
Class 1:
Minimum packet latency = 8
Average packet latency = 38.8825
Maximum packet latency = 323
Minimum network latency = 8
Average network latency = 38.7929
Maximum network latency = 323
Slowest packet = 3260
Minimum flit latency = 7
Average flit latency = 37.756
Maximum flit latency = 322
Slowest flit = 6520
Minimum fragmentation = 0
Average fragmentation = 0
Maximum fragmentation = 0
Minimum injected packet rate = 0.018 (at node 41)
Average injected packet rate = 0.0256562
Maximum injected packet rate = 0.035 (at node 16)
Minimum accepted packet rate = 0.014 (at node 40)
Average accepted packet rate = 0.0245938
Maximum accepted packet rate = 0.035 (at node 2)
Minimum injected flit rate = 0.036 (at node 41)
Average injected flit rate = 0.0512969
Maximum injected flit rate = 0.07 (at node 16)
Minimum accepted flit rate = 0.028 (at node 40)
Average accepted flit rate = 0.0492344
Maximum accepted flit rate = 0.07 (at node 2)
Average injected packet length = 1.99939
Average accepted packet length = 2.00191
Total in-flight flits = 135 (0 measured)
latency change    = 1
throughput change = 1
latency change    = 1
throughput change = 1
0
Class 0:
Minimum packet latency = 8
Average packet latency = 88.9319
Maximum packet latency = 1361
Minimum network latency = 8
Average network latency = 86.9143
Maximum network latency = 1361
Slowest packet = 3408
Minimum flit latency = 5
Average flit latency = 85.1864
Maximum flit latency = 1360
Slowest flit = 6817
Minimum fragmentation = 0
Average fragmentation = 1.44116
Maximum fragmentation = 103
Minimum injected packet rate = 0.036 (at node 7)
Average injected packet rate = 0.0622891
Maximum injected packet rate = 0.075 (at node 13)
Minimum accepted packet rate = 0.0215 (at node 56)
Average accepted packet rate = 0.0581562
Maximum accepted packet rate = 0.0715 (at node 59)
Minimum injected flit rate = 0.072 (at node 7)
Average injected flit rate = 0.124539
Maximum injected flit rate = 0.15 (at node 13)
Minimum accepted flit rate = 0.043 (at node 56)
Average accepted flit rate = 0.116367
Maximum accepted flit rate = 0.143 (at node 59)
Average injected packet length = 1.99937
Average accepted packet length = 2.00094
Total in-flight flits = 1067 (0 measured)
Class 1:
Minimum packet latency = 8
Average packet latency = 47.2149
Maximum packet latency = 691
Minimum network latency = 8
Average network latency = 45.5781
Maximum network latency = 683
Slowest packet = 6489
Minimum flit latency = 7
Average flit latency = 44.4973
Maximum flit latency = 682
Slowest flit = 12978
Minimum fragmentation = 0
Average fragmentation = 0
Maximum fragmentation = 0
Minimum injected packet rate = 0.02 (at node 14)
Average injected packet rate = 0.0252188
Maximum injected packet rate = 0.0335 (at node 48)
Minimum accepted packet rate = 0.0185 (at node 48)
Average accepted packet rate = 0.0244609
Maximum accepted packet rate = 0.0325 (at node 55)
Minimum injected flit rate = 0.04 (at node 14)
Average injected flit rate = 0.0504297
Maximum injected flit rate = 0.067 (at node 48)
Minimum accepted flit rate = 0.037 (at node 48)
Average accepted flit rate = 0.0489375
Maximum accepted flit rate = 0.065 (at node 55)
Average injected packet length = 1.99969
Average accepted packet length = 2.00064
Total in-flight flits = 200 (0 measured)
latency change    = 0.242417
throughput change = 0.0337697
latency change    = 0.17648
throughput change = 0.00606641
0
Class 0:
Minimum packet latency = 8
Average packet latency = 145.649
Maximum packet latency = 2216
Minimum network latency = 8
Average network latency = 129.072
Maximum network latency = 2138
Slowest packet = 3670
Minimum flit latency = 7
Average flit latency = 127.192
Maximum flit latency = 2137
Slowest flit = 7340
Minimum fragmentation = 0
Average fragmentation = 1.48117
Maximum fragmentation = 194
Minimum injected packet rate = 0.013 (at node 56)
Average injected packet rate = 0.0595781
Maximum injected packet rate = 0.083 (at node 9)
Minimum accepted packet rate = 0.015 (at node 7)
Average accepted packet rate = 0.05975
Maximum accepted packet rate = 0.083 (at node 9)
Minimum injected flit rate = 0.026 (at node 56)
Average injected flit rate = 0.119234
Maximum injected flit rate = 0.166 (at node 9)
Minimum accepted flit rate = 0.03 (at node 7)
Average accepted flit rate = 0.119516
Maximum accepted flit rate = 0.166 (at node 9)
Average injected packet length = 2.00131
Average accepted packet length = 2.00026
Total in-flight flits = 1046 (0 measured)
Class 1:
Minimum packet latency = 8
Average packet latency = 74.2063
Maximum packet latency = 1014
Minimum network latency = 8
Average network latency = 65.8142
Maximum network latency = 897
Slowest packet = 6920
Minimum flit latency = 7
Average flit latency = 64.7877
Maximum flit latency = 896
Slowest flit = 13840
Minimum fragmentation = 0
Average fragmentation = 0
Maximum fragmentation = 0
Minimum injected packet rate = 0.012 (at node 25)
Average injected packet rate = 0.0245469
Maximum injected packet rate = 0.038 (at node 56)
Minimum accepted packet rate = 0.014 (at node 11)
Average accepted packet rate = 0.0244688
Maximum accepted packet rate = 0.037 (at node 36)
Minimum injected flit rate = 0.024 (at node 25)
Average injected flit rate = 0.0490937
Maximum injected flit rate = 0.076 (at node 56)
Minimum accepted flit rate = 0.028 (at node 11)
Average accepted flit rate = 0.0489375
Maximum accepted flit rate = 0.074 (at node 36)
Average injected packet length = 2
Average accepted packet length = 2
Total in-flight flits = 206 (0 measured)
latency change    = 0.389408
throughput change = 0.0263433
latency change    = 0.363734
throughput change = 0
Warmed up ...Time used is 3000 cycles
1
Class 0:
Minimum packet latency = 8
Average packet latency = 83.5908
Maximum packet latency = 1863
Minimum network latency = 8
Average network latency = 72.791
Maximum network latency = 979
Slowest packet = 16600
Minimum flit latency = 5
Average flit latency = 127.659
Maximum flit latency = 2649
Slowest flit = 14801
Minimum fragmentation = 0
Average fragmentation = 1.38094
Maximum fragmentation = 128
Minimum injected packet rate = 0.01 (at node 57)
Average injected packet rate = 0.0593906
Maximum injected packet rate = 0.079 (at node 61)
Minimum accepted packet rate = 0.01 (at node 7)
Average accepted packet rate = 0.059125
Maximum accepted packet rate = 0.077 (at node 24)
Minimum injected flit rate = 0.02 (at node 57)
Average injected flit rate = 0.11875
Maximum injected flit rate = 0.158 (at node 61)
Minimum accepted flit rate = 0.02 (at node 7)
Average accepted flit rate = 0.118234
Maximum accepted flit rate = 0.154 (at node 47)
Average injected packet length = 1.99947
Average accepted packet length = 1.99974
Total in-flight flits = 1085 (947 measured)
Class 1:
Minimum packet latency = 8
Average packet latency = 59.5362
Maximum packet latency = 1018
Minimum network latency = 8
Average network latency = 53.5597
Maximum network latency = 893
Slowest packet = 16998
Minimum flit latency = 7
Average flit latency = 66.5016
Maximum flit latency = 1004
Slowest flit = 25752
Minimum fragmentation = 0
Average fragmentation = 0
Maximum fragmentation = 0
Minimum injected packet rate = 0.015 (at node 58)
Average injected packet rate = 0.0242188
Maximum injected packet rate = 0.037 (at node 19)
Minimum accepted packet rate = 0.016 (at node 17)
Average accepted packet rate = 0.0242656
Maximum accepted packet rate = 0.037 (at node 26)
Minimum injected flit rate = 0.03 (at node 58)
Average injected flit rate = 0.0484219
Maximum injected flit rate = 0.074 (at node 19)
Minimum accepted flit rate = 0.032 (at node 17)
Average accepted flit rate = 0.0485
Maximum accepted flit rate = 0.074 (at node 26)
Average injected packet length = 1.99935
Average accepted packet length = 1.99871
Total in-flight flits = 208 (208 measured)
latency change    = 0.742399
throughput change = 0.0108365
latency change    = 0.246405
throughput change = 0.00902062
1
Class 0:
Minimum packet latency = 8
Average packet latency = 123.005
Maximum packet latency = 3735
Minimum network latency = 8
Average network latency = 93.89
Maximum network latency = 1515
Slowest packet = 16600
Minimum flit latency = 5
Average flit latency = 132.047
Maximum flit latency = 3005
Slowest flit = 16240
Minimum fragmentation = 0
Average fragmentation = 1.4848
Maximum fragmentation = 128
Minimum injected packet rate = 0.0125 (at node 6)
Average injected packet rate = 0.0598438
Maximum injected packet rate = 0.0795 (at node 61)
Minimum accepted packet rate = 0.0115 (at node 56)
Average accepted packet rate = 0.0597734
Maximum accepted packet rate = 0.0785 (at node 47)
Minimum injected flit rate = 0.025 (at node 6)
Average injected flit rate = 0.119641
Maximum injected flit rate = 0.159 (at node 61)
Minimum accepted flit rate = 0.023 (at node 56)
Average accepted flit rate = 0.119586
Maximum accepted flit rate = 0.157 (at node 47)
Average injected packet length = 1.99922
Average accepted packet length = 2.00065
Total in-flight flits = 1057 (1031 measured)
Class 1:
Minimum packet latency = 8
Average packet latency = 69.5104
Maximum packet latency = 1548
Minimum network latency = 8
Average network latency = 61.8929
Maximum network latency = 1353
Slowest packet = 16998
Minimum flit latency = 7
Average flit latency = 67.4036
Maximum flit latency = 1352
Slowest flit = 39206
Minimum fragmentation = 0
Average fragmentation = 0
Maximum fragmentation = 0
Minimum injected packet rate = 0.0165 (at node 18)
Average injected packet rate = 0.0245
Maximum injected packet rate = 0.033 (at node 19)
Minimum accepted packet rate = 0.0165 (at node 18)
Average accepted packet rate = 0.0244453
Maximum accepted packet rate = 0.0345 (at node 56)
Minimum injected flit rate = 0.033 (at node 18)
Average injected flit rate = 0.049
Maximum injected flit rate = 0.066 (at node 19)
Minimum accepted flit rate = 0.033 (at node 18)
Average accepted flit rate = 0.048875
Maximum accepted flit rate = 0.069 (at node 56)
Average injected packet length = 2
Average accepted packet length = 1.99936
Total in-flight flits = 224 (224 measured)
latency change    = 0.320427
throughput change = 0.011302
latency change    = 0.143492
throughput change = 0.00767263
1
Class 0:
Minimum packet latency = 8
Average packet latency = 157.528
Maximum packet latency = 4609
Minimum network latency = 8
Average network latency = 105.958
Maximum network latency = 2712
Slowest packet = 16600
Minimum flit latency = 5
Average flit latency = 133.233
Maximum flit latency = 3095
Slowest flit = 30676
Minimum fragmentation = 0
Average fragmentation = 1.52763
Maximum fragmentation = 128
Minimum injected packet rate = 0.0103333 (at node 6)
Average injected packet rate = 0.0594479
Maximum injected packet rate = 0.0793333 (at node 47)
Minimum accepted packet rate = 0.0116667 (at node 56)
Average accepted packet rate = 0.0593958
Maximum accepted packet rate = 0.0786667 (at node 61)
Minimum injected flit rate = 0.0206667 (at node 6)
Average injected flit rate = 0.118854
Maximum injected flit rate = 0.158667 (at node 47)
Minimum accepted flit rate = 0.0233333 (at node 56)
Average accepted flit rate = 0.118833
Maximum accepted flit rate = 0.157333 (at node 61)
Average injected packet length = 1.9993
Average accepted packet length = 2.0007
Total in-flight flits = 1056 (1056 measured)
Class 1:
Minimum packet latency = 8
Average packet latency = 70.9859
Maximum packet latency = 1548
Minimum network latency = 8
Average network latency = 63.8328
Maximum network latency = 1353
Slowest packet = 16998
Minimum flit latency = 7
Average flit latency = 66.9586
Maximum flit latency = 1352
Slowest flit = 39206
Minimum fragmentation = 0
Average fragmentation = 0
Maximum fragmentation = 0
Minimum injected packet rate = 0.0186667 (at node 56)
Average injected packet rate = 0.0251146
Maximum injected packet rate = 0.031 (at node 1)
Minimum accepted packet rate = 0.0203333 (at node 7)
Average accepted packet rate = 0.025
Maximum accepted packet rate = 0.0306667 (at node 8)
Minimum injected flit rate = 0.0373333 (at node 56)
Average injected flit rate = 0.0502135
Maximum injected flit rate = 0.062 (at node 1)
Minimum accepted flit rate = 0.0403333 (at node 7)
Average accepted flit rate = 0.0499948
Maximum accepted flit rate = 0.0613333 (at node 8)
Average injected packet length = 1.99938
Average accepted packet length = 1.99979
Total in-flight flits = 253 (253 measured)
latency change    = 0.219155
throughput change = 0.00633327
latency change    = 0.0207863
throughput change = 0.0223982
1
Class 0:
Minimum packet latency = 8
Average packet latency = 195.077
Maximum packet latency = 5581
Minimum network latency = 8
Average network latency = 115.42
Maximum network latency = 3561
Slowest packet = 16600
Minimum flit latency = 5
Average flit latency = 135.002
Maximum flit latency = 3560
Slowest flit = 34152
Minimum fragmentation = 0
Average fragmentation = 1.54848
Maximum fragmentation = 128
Minimum injected packet rate = 0.01175 (at node 56)
Average injected packet rate = 0.059582
Maximum injected packet rate = 0.07475 (at node 47)
Minimum accepted packet rate = 0.01275 (at node 7)
Average accepted packet rate = 0.059625
Maximum accepted packet rate = 0.07475 (at node 61)
Minimum injected flit rate = 0.0235 (at node 56)
Average injected flit rate = 0.119148
Maximum injected flit rate = 0.1495 (at node 47)
Minimum accepted flit rate = 0.0255 (at node 7)
Average accepted flit rate = 0.119246
Maximum accepted flit rate = 0.1495 (at node 61)
Average injected packet length = 1.99974
Average accepted packet length = 1.99993
Total in-flight flits = 1027 (1027 measured)
Class 1:
Minimum packet latency = 8
Average packet latency = 72.5875
Maximum packet latency = 1548
Minimum network latency = 8
Average network latency = 64.7729
Maximum network latency = 1353
Slowest packet = 16998
Minimum flit latency = 7
Average flit latency = 66.7915
Maximum flit latency = 1352
Slowest flit = 39206
Minimum fragmentation = 0
Average fragmentation = 0
Maximum fragmentation = 0
Minimum injected packet rate = 0.02025 (at node 37)
Average injected packet rate = 0.0249922
Maximum injected packet rate = 0.03075 (at node 24)
Minimum accepted packet rate = 0.02025 (at node 44)
Average accepted packet rate = 0.025
Maximum accepted packet rate = 0.03075 (at node 3)
Minimum injected flit rate = 0.0405 (at node 37)
Average injected flit rate = 0.0499883
Maximum injected flit rate = 0.0615 (at node 24)
Minimum accepted flit rate = 0.0405 (at node 44)
Average accepted flit rate = 0.0499961
Maximum accepted flit rate = 0.0615 (at node 3)
Average injected packet length = 2.00016
Average accepted packet length = 1.99984
Total in-flight flits = 205 (205 measured)
latency change    = 0.192485
throughput change = 0.00346142
latency change    = 0.022064
throughput change = 2.60437e-05
1
Class 0:
Minimum packet latency = 8
Average packet latency = 226.543
Maximum packet latency = 6378
Minimum network latency = 8
Average network latency = 120.212
Maximum network latency = 3561
Slowest packet = 16600
Minimum flit latency = 5
Average flit latency = 135.397
Maximum flit latency = 3560
Slowest flit = 34152
Minimum fragmentation = 0
Average fragmentation = 1.52508
Maximum fragmentation = 128
Minimum injected packet rate = 0.0132 (at node 56)
Average injected packet rate = 0.0596
Maximum injected packet rate = 0.0728 (at node 45)
Minimum accepted packet rate = 0.0132 (at node 7)
Average accepted packet rate = 0.0595906
Maximum accepted packet rate = 0.0728 (at node 45)
Minimum injected flit rate = 0.0264 (at node 56)
Average injected flit rate = 0.119191
Maximum injected flit rate = 0.1456 (at node 45)
Minimum accepted flit rate = 0.0264 (at node 7)
Average accepted flit rate = 0.119178
Maximum accepted flit rate = 0.1456 (at node 45)
Average injected packet length = 1.99984
Average accepted packet length = 1.99995
Total in-flight flits = 1053 (1053 measured)
Class 1:
Minimum packet latency = 8
Average packet latency = 72.8807
Maximum packet latency = 1548
Minimum network latency = 8
Average network latency = 64.8546
Maximum network latency = 1353
Slowest packet = 16998
Minimum flit latency = 7
Average flit latency = 66.2126
Maximum flit latency = 1352
Slowest flit = 39206
Minimum fragmentation = 0
Average fragmentation = 0
Maximum fragmentation = 0
Minimum injected packet rate = 0.021 (at node 53)
Average injected packet rate = 0.0249063
Maximum injected packet rate = 0.0302 (at node 30)
Minimum accepted packet rate = 0.021 (at node 46)
Average accepted packet rate = 0.0249281
Maximum accepted packet rate = 0.0308 (at node 51)
Minimum injected flit rate = 0.042 (at node 53)
Average injected flit rate = 0.0498125
Maximum injected flit rate = 0.0604 (at node 30)
Minimum accepted flit rate = 0.042 (at node 46)
Average accepted flit rate = 0.0498594
Maximum accepted flit rate = 0.0616 (at node 51)
Average injected packet length = 2
Average accepted packet length = 2.00013
Total in-flight flits = 191 (191 measured)
latency change    = 0.138894
throughput change = 0.000570312
latency change    = 0.00402323
throughput change = 0.00274209
1
Class 0:
Minimum packet latency = 8
Average packet latency = 253.963
Maximum packet latency = 7303
Minimum network latency = 8
Average network latency = 122.599
Maximum network latency = 3561
Slowest packet = 16600
Minimum flit latency = 5
Average flit latency = 134.854
Maximum flit latency = 3560
Slowest flit = 34152
Minimum fragmentation = 0
Average fragmentation = 1.51403
Maximum fragmentation = 128
Minimum injected packet rate = 0.0138333 (at node 56)
Average injected packet rate = 0.0596875
Maximum injected packet rate = 0.0726667 (at node 45)
Minimum accepted packet rate = 0.0133333 (at node 7)
Average accepted packet rate = 0.0596693
Maximum accepted packet rate = 0.0725 (at node 45)
Minimum injected flit rate = 0.0276667 (at node 56)
Average injected flit rate = 0.119357
Maximum injected flit rate = 0.145333 (at node 45)
Minimum accepted flit rate = 0.0266667 (at node 7)
Average accepted flit rate = 0.119341
Maximum accepted flit rate = 0.145 (at node 45)
Average injected packet length = 1.99969
Average accepted packet length = 2.00004
Total in-flight flits = 1057 (1057 measured)
Class 1:
Minimum packet latency = 8
Average packet latency = 72.5209
Maximum packet latency = 1548
Minimum network latency = 8
Average network latency = 64.767
Maximum network latency = 1353
Slowest packet = 16998
Minimum flit latency = 7
Average flit latency = 65.7006
Maximum flit latency = 1352
Slowest flit = 39206
Minimum fragmentation = 0
Average fragmentation = 0
Maximum fragmentation = 0
Minimum injected packet rate = 0.0213333 (at node 47)
Average injected packet rate = 0.0249349
Maximum injected packet rate = 0.029 (at node 11)
Minimum accepted packet rate = 0.0213333 (at node 46)
Average accepted packet rate = 0.0248646
Maximum accepted packet rate = 0.029 (at node 25)
Minimum injected flit rate = 0.0426667 (at node 47)
Average injected flit rate = 0.0498594
Maximum injected flit rate = 0.058 (at node 11)
Minimum accepted flit rate = 0.0426667 (at node 46)
Average accepted flit rate = 0.0497266
Maximum accepted flit rate = 0.058 (at node 25)
Average injected packet length = 1.99958
Average accepted packet length = 1.9999
Total in-flight flits = 265 (265 measured)
latency change    = 0.10797
throughput change = 0.00136601
latency change    = 0.00496232
throughput change = 0.00267086
1
Class 0:
Minimum packet latency = 8
Average packet latency = 269.523
Maximum packet latency = 7848
Minimum network latency = 8
Average network latency = 124.323
Maximum network latency = 3561
Slowest packet = 16600
Minimum flit latency = 5
Average flit latency = 134.595
Maximum flit latency = 3560
Slowest flit = 34152
Minimum fragmentation = 0
Average fragmentation = 1.51441
Maximum fragmentation = 128
Minimum injected packet rate = 0.012 (at node 56)
Average injected packet rate = 0.0595067
Maximum injected packet rate = 0.0722857 (at node 45)
Minimum accepted packet rate = 0.0128571 (at node 7)
Average accepted packet rate = 0.0595826
Maximum accepted packet rate = 0.0722857 (at node 45)
Minimum injected flit rate = 0.024 (at node 56)
Average injected flit rate = 0.119002
Maximum injected flit rate = 0.144571 (at node 45)
Minimum accepted flit rate = 0.0257143 (at node 7)
Average accepted flit rate = 0.119161
Maximum accepted flit rate = 0.144571 (at node 45)
Average injected packet length = 1.99981
Average accepted packet length = 1.99993
Total in-flight flits = 980 (980 measured)
Class 1:
Minimum packet latency = 8
Average packet latency = 73.562
Maximum packet latency = 1548
Minimum network latency = 8
Average network latency = 65.4677
Maximum network latency = 1353
Slowest packet = 16998
Minimum flit latency = 7
Average flit latency = 66.1077
Maximum flit latency = 1352
Slowest flit = 39206
Minimum fragmentation = 0
Average fragmentation = 0
Maximum fragmentation = 0
Minimum injected packet rate = 0.0212857 (at node 47)
Average injected packet rate = 0.0249063
Maximum injected packet rate = 0.029 (at node 6)
Minimum accepted packet rate = 0.0214286 (at node 61)
Average accepted packet rate = 0.0248705
Maximum accepted packet rate = 0.0281429 (at node 3)
Minimum injected flit rate = 0.0425714 (at node 47)
Average injected flit rate = 0.0498103
Maximum injected flit rate = 0.058 (at node 6)
Minimum accepted flit rate = 0.0428571 (at node 61)
Average accepted flit rate = 0.0497433
Maximum accepted flit rate = 0.0562857 (at node 3)
Average injected packet length = 1.99991
Average accepted packet length = 2.00009
Total in-flight flits = 237 (237 measured)
latency change    = 0.0577307
throughput change = 0.00151419
latency change    = 0.0141528
throughput change = 0.000336549
Draining all recorded packets ...
Class 0:
Remaining flits: 87578 87579 87590 87591 89072 89073 93522 93523 93844 93845 [...] (1062 flits)
Measured flits: 87578 87579 87590 87591 89072 89073 93522 93523 93844 93845 [...] (591 flits)
Class 1:
Remaining flits: 112646 112647 113552 113553 114036 114037 114062 114063 114192 114193 [...] (256 flits)
Measured flits: (0 flits)
Class 0:
Remaining flits: 95148 95149 95156 95157 95216 95217 95890 95891 95918 95919 [...] (1063 flits)
Measured flits: 95148 95149 95156 95157 95216 95217 95890 95891 95918 95919 [...] (581 flits)
Class 1:
Remaining flits: 116794 116795 118028 118029 118394 118395 118614 118615 119752 119753 [...] (220 flits)
Measured flits: (0 flits)
Average latency for class 0 exceeded 500 cycles. Aborting simulation.
Simulation unstable, ending ...
Total run time 42.9433
