BEGIN Configuration File: ./examples/project_inputs/config-iqevc_tp-uniform_c1ir-0.05_c0ir-0.19
//
// EVC Router Config File -         
//
// Jason Deng, Mike Wang        
//        

//
// Flow control
//

num_vcs     = 5;
vc_buf_size = 6;

wait_for_tail_credit = 0;

vc_allocator = select;
sw_allocator = select;
alloc_iters  = 2;

credit_delay   = 2;
routing_delay  = 1;
vc_alloc_delay = 1;
sw_alloc_delay = 1;
st_final_delay = 1;

input_speedup     = 1;
output_speedup    = 1;
internal_speedup  = 1.0;

//
// Traffic
//

sim_type = latency;

warmup_periods = 3;
sample_period  = 1000;
sim_count = 1;

//
//topoogy
//

topology = mesh;
k  = 8;
n  = 2;

//
// Routing
//

router = iqevc;
routing_function = dor;

packet_size = 2;
use_read_write = 0;

traffic  = uniform;
injection_rate = {0.19,0.05};
injection_rate_uses_flits = 1;

classes = 2;
class_priority = {0,1};
priority = class;

noq = 0;
hold_switch_for_packet = 0;
vc_prioritize_empty = 0;

//
// express virtual channel settings
//

evc = 1;
num_evcs = 1;
evc_prioritized_class = 1;
selective_vc_request = 1;
hold_switch_for_evc_packet = 1;
evc_next_route = 1;

END Configuration File: ./examples/project_inputs/config-iqevc_tp-uniform_c1ir-0.05_c0ir-0.19
0
Class 0:
Minimum packet latency = 8
Average packet latency = 37.3041
Maximum packet latency = 102
Minimum network latency = 8
Average network latency = 37.0665
Maximum network latency = 102
Slowest packet = 6109
Minimum flit latency = 7
Average flit latency = 35.5785
Maximum flit latency = 101
Slowest flit = 12219
Minimum fragmentation = 0
Average fragmentation = 0.927646
Maximum fragmentation = 19
Minimum injected packet rate = 0.074 (at node 9)
Average injected packet rate = 0.0938594
Maximum injected packet rate = 0.112 (at node 3)
Minimum accepted packet rate = 0.072 (at node 18)
Average accepted packet rate = 0.0904844
Maximum accepted packet rate = 0.112 (at node 34)
Minimum injected flit rate = 0.147 (at node 9)
Average injected flit rate = 0.187547
Maximum injected flit rate = 0.224 (at node 3)
Minimum accepted flit rate = 0.144 (at node 18)
Average accepted flit rate = 0.181219
Maximum accepted flit rate = 0.224 (at node 34)
Average injected packet length = 1.99817
Average accepted packet length = 2.00276
Total in-flight flits = 416 (0 measured)
Class 1:
Minimum packet latency = 8
Average packet latency = 35.7495
Maximum packet latency = 85
Minimum network latency = 8
Average network latency = 35.7314
Maximum network latency = 85
Slowest packet = 4251
Minimum flit latency = 7
Average flit latency = 34.7314
Maximum flit latency = 84
Slowest flit = 8502
Minimum fragmentation = 0
Average fragmentation = 0
Maximum fragmentation = 0
Minimum injected packet rate = 0.012 (at node 39)
Average injected packet rate = 0.0251094
Maximum injected packet rate = 0.038 (at node 38)
Minimum accepted packet rate = 0.014 (at node 48)
Average accepted packet rate = 0.0241406
Maximum accepted packet rate = 0.034 (at node 3)
Minimum injected flit rate = 0.024 (at node 39)
Average injected flit rate = 0.0501875
Maximum injected flit rate = 0.076 (at node 38)
Minimum accepted flit rate = 0.028 (at node 48)
Average accepted flit rate = 0.0482812
Maximum accepted flit rate = 0.068 (at node 3)
Average injected packet length = 1.99876
Average accepted packet length = 2
Total in-flight flits = 124 (0 measured)
latency change    = 1
throughput change = 1
latency change    = 1
throughput change = 1
0
Class 0:
Minimum packet latency = 8
Average packet latency = 37.4685
Maximum packet latency = 102
Minimum network latency = 8
Average network latency = 37.2358
Maximum network latency = 102
Slowest packet = 6109
Minimum flit latency = 7
Average flit latency = 35.7444
Maximum flit latency = 101
Slowest flit = 12219
Minimum fragmentation = 0
Average fragmentation = 0.933176
Maximum fragmentation = 19
Minimum injected packet rate = 0.0775 (at node 16)
Average injected packet rate = 0.0943672
Maximum injected packet rate = 0.116 (at node 3)
Minimum accepted packet rate = 0.0775 (at node 52)
Average accepted packet rate = 0.0924766
Maximum accepted packet rate = 0.1095 (at node 14)
Minimum injected flit rate = 0.155 (at node 16)
Average injected flit rate = 0.188664
Maximum injected flit rate = 0.232 (at node 3)
Minimum accepted flit rate = 0.1555 (at node 52)
Average accepted flit rate = 0.185062
Maximum accepted flit rate = 0.219 (at node 14)
Average injected packet length = 1.99925
Average accepted packet length = 2.00118
Total in-flight flits = 472 (0 measured)
Class 1:
Minimum packet latency = 8
Average packet latency = 35.5128
Maximum packet latency = 89
Minimum network latency = 8
Average network latency = 35.4892
Maximum network latency = 89
Slowest packet = 9540
Minimum flit latency = 7
Average flit latency = 34.4927
Maximum flit latency = 88
Slowest flit = 19080
Minimum fragmentation = 0
Average fragmentation = 0
Maximum fragmentation = 0
Minimum injected packet rate = 0.017 (at node 15)
Average injected packet rate = 0.0249063
Maximum injected packet rate = 0.0345 (at node 1)
Minimum accepted packet rate = 0.0165 (at node 48)
Average accepted packet rate = 0.0244844
Maximum accepted packet rate = 0.034 (at node 58)
Minimum injected flit rate = 0.034 (at node 15)
Average injected flit rate = 0.0498125
Maximum injected flit rate = 0.069 (at node 1)
Minimum accepted flit rate = 0.033 (at node 48)
Average accepted flit rate = 0.0489766
Maximum accepted flit rate = 0.068 (at node 58)
Average injected packet length = 2
Average accepted packet length = 2.00032
Total in-flight flits = 107 (0 measured)
latency change    = 0.0043887
throughput change = 0.02077
latency change    = 0.00666665
throughput change = 0.0141968
0
Class 0:
Minimum packet latency = 8
Average packet latency = 37.3663
Maximum packet latency = 88
Minimum network latency = 8
Average network latency = 37.1529
Maximum network latency = 88
Slowest packet = 22015
Minimum flit latency = 7
Average flit latency = 35.6487
Maximum flit latency = 87
Slowest flit = 44031
Minimum fragmentation = 0
Average fragmentation = 0.952208
Maximum fragmentation = 18
Minimum injected packet rate = 0.077 (at node 56)
Average injected packet rate = 0.094375
Maximum injected packet rate = 0.117 (at node 12)
Minimum accepted packet rate = 0.078 (at node 63)
Average accepted packet rate = 0.0948125
Maximum accepted packet rate = 0.118 (at node 60)
Minimum injected flit rate = 0.154 (at node 56)
Average injected flit rate = 0.188797
Maximum injected flit rate = 0.234 (at node 12)
Minimum accepted flit rate = 0.157 (at node 63)
Average accepted flit rate = 0.189547
Maximum accepted flit rate = 0.234 (at node 60)
Average injected packet length = 2.0005
Average accepted packet length = 1.99918
Total in-flight flits = 419 (0 measured)
Class 1:
Minimum packet latency = 8
Average packet latency = 34.5199
Maximum packet latency = 81
Minimum network latency = 8
Average network latency = 34.494
Maximum network latency = 80
Slowest packet = 15052
Minimum flit latency = 7
Average flit latency = 33.4915
Maximum flit latency = 79
Slowest flit = 30104
Minimum fragmentation = 0
Average fragmentation = 0
Maximum fragmentation = 0
Minimum injected packet rate = 0.012 (at node 53)
Average injected packet rate = 0.0247031
Maximum injected packet rate = 0.035 (at node 25)
Minimum accepted packet rate = 0.016 (at node 30)
Average accepted packet rate = 0.0247656
Maximum accepted packet rate = 0.037 (at node 8)
Minimum injected flit rate = 0.024 (at node 53)
Average injected flit rate = 0.0493906
Maximum injected flit rate = 0.07 (at node 25)
Minimum accepted flit rate = 0.032 (at node 30)
Average accepted flit rate = 0.0495312
Maximum accepted flit rate = 0.074 (at node 8)
Average injected packet length = 1.99937
Average accepted packet length = 2
Total in-flight flits = 99 (0 measured)
latency change    = 0.00273462
throughput change = 0.0236584
latency change    = 0.0287628
throughput change = 0.0111987
Warmed up ...Time used is 3000 cycles
1
Class 0:
Minimum packet latency = 8
Average packet latency = 36.7496
Maximum packet latency = 87
Minimum network latency = 8
Average network latency = 36.5238
Maximum network latency = 84
Slowest packet = 24029
Minimum flit latency = 7
Average flit latency = 35.2323
Maximum flit latency = 83
Slowest flit = 57688
Minimum fragmentation = 0
Average fragmentation = 0.947797
Maximum fragmentation = 16
Minimum injected packet rate = 0.077 (at node 16)
Average injected packet rate = 0.0940938
Maximum injected packet rate = 0.133 (at node 39)
Minimum accepted packet rate = 0.074 (at node 38)
Average accepted packet rate = 0.0934375
Maximum accepted packet rate = 0.117 (at node 2)
Minimum injected flit rate = 0.154 (at node 16)
Average injected flit rate = 0.188172
Maximum injected flit rate = 0.266 (at node 39)
Minimum accepted flit rate = 0.148 (at node 38)
Average accepted flit rate = 0.187109
Maximum accepted flit rate = 0.233 (at node 2)
Average injected packet length = 1.99983
Average accepted packet length = 2.00251
Total in-flight flits = 488 (488 measured)
Class 1:
Minimum packet latency = 8
Average packet latency = 35.296
Maximum packet latency = 91
Minimum network latency = 8
Average network latency = 35.2772
Maximum network latency = 91
Slowest packet = 27538
Minimum flit latency = 7
Average flit latency = 34.4156
Maximum flit latency = 90
Slowest flit = 55076
Minimum fragmentation = 0
Average fragmentation = 0
Maximum fragmentation = 0
Minimum injected packet rate = 0.014 (at node 36)
Average injected packet rate = 0.0250469
Maximum injected packet rate = 0.042 (at node 3)
Minimum accepted packet rate = 0.013 (at node 28)
Average accepted packet rate = 0.0247969
Maximum accepted packet rate = 0.041 (at node 31)
Minimum injected flit rate = 0.028 (at node 36)
Average injected flit rate = 0.0500781
Maximum injected flit rate = 0.085 (at node 3)
Minimum accepted flit rate = 0.026 (at node 28)
Average accepted flit rate = 0.0495937
Maximum accepted flit rate = 0.082 (at node 31)
Average injected packet length = 1.99938
Average accepted packet length = 2
Total in-flight flits = 131 (131 measured)
latency change    = 0.0167834
throughput change = 0.0130271
latency change    = 0.0219899
throughput change = 0.00126024
1
Class 0:
Minimum packet latency = 8
Average packet latency = 37.114
Maximum packet latency = 92
Minimum network latency = 8
Average network latency = 36.8841
Maximum network latency = 92
Slowest packet = 35913
Minimum flit latency = 7
Average flit latency = 35.4672
Maximum flit latency = 91
Slowest flit = 71827
Minimum fragmentation = 0
Average fragmentation = 0.980034
Maximum fragmentation = 16
Minimum injected packet rate = 0.079 (at node 44)
Average injected packet rate = 0.0947656
Maximum injected packet rate = 0.117 (at node 39)
Minimum accepted packet rate = 0.081 (at node 17)
Average accepted packet rate = 0.0947969
Maximum accepted packet rate = 0.1145 (at node 2)
Minimum injected flit rate = 0.158 (at node 44)
Average injected flit rate = 0.189547
Maximum injected flit rate = 0.234 (at node 39)
Minimum accepted flit rate = 0.1615 (at node 17)
Average accepted flit rate = 0.189625
Maximum accepted flit rate = 0.229 (at node 2)
Average injected packet length = 2.00016
Average accepted packet length = 2.00033
Total in-flight flits = 407 (407 measured)
Class 1:
Minimum packet latency = 8
Average packet latency = 35.253
Maximum packet latency = 91
Minimum network latency = 8
Average network latency = 35.2284
Maximum network latency = 91
Slowest packet = 27538
Minimum flit latency = 7
Average flit latency = 34.2941
Maximum flit latency = 90
Slowest flit = 55076
Minimum fragmentation = 0
Average fragmentation = 0
Maximum fragmentation = 0
Minimum injected packet rate = 0.016 (at node 36)
Average injected packet rate = 0.0248047
Maximum injected packet rate = 0.032 (at node 19)
Minimum accepted packet rate = 0.0165 (at node 2)
Average accepted packet rate = 0.02475
Maximum accepted packet rate = 0.034 (at node 31)
Minimum injected flit rate = 0.032 (at node 36)
Average injected flit rate = 0.0496016
Maximum injected flit rate = 0.064 (at node 19)
Minimum accepted flit rate = 0.033 (at node 2)
Average accepted flit rate = 0.0494922
Maximum accepted flit rate = 0.068 (at node 31)
Average injected packet length = 1.99969
Average accepted packet length = 1.99968
Total in-flight flits = 114 (114 measured)
latency change    = 0.00981957
throughput change = 0.0132663
latency change    = 0.00121931
throughput change = 0.00205209
1
Class 0:
Minimum packet latency = 8
Average packet latency = 37.2394
Maximum packet latency = 107
Minimum network latency = 8
Average network latency = 37.0099
Maximum network latency = 107
Slowest packet = 44257
Minimum flit latency = 5
Average flit latency = 35.5584
Maximum flit latency = 106
Slowest flit = 88515
Minimum fragmentation = 0
Average fragmentation = 0.979235
Maximum fragmentation = 19
Minimum injected packet rate = 0.084 (at node 44)
Average injected packet rate = 0.0950312
Maximum injected packet rate = 0.107 (at node 39)
Minimum accepted packet rate = 0.0853333 (at node 39)
Average accepted packet rate = 0.0949219
Maximum accepted packet rate = 0.111333 (at node 2)
Minimum injected flit rate = 0.168 (at node 44)
Average injected flit rate = 0.190068
Maximum injected flit rate = 0.214 (at node 39)
Minimum accepted flit rate = 0.171333 (at node 39)
Average accepted flit rate = 0.189927
Maximum accepted flit rate = 0.222333 (at node 2)
Average injected packet length = 2.00005
Average accepted packet length = 2.00088
Total in-flight flits = 445 (445 measured)
Class 1:
Minimum packet latency = 8
Average packet latency = 35.2614
Maximum packet latency = 91
Minimum network latency = 8
Average network latency = 35.238
Maximum network latency = 91
Slowest packet = 27538
Minimum flit latency = 7
Average flit latency = 34.2793
Maximum flit latency = 90
Slowest flit = 55076
Minimum fragmentation = 0
Average fragmentation = 0
Maximum fragmentation = 0
Minimum injected packet rate = 0.0176667 (at node 6)
Average injected packet rate = 0.0250417
Maximum injected packet rate = 0.0333333 (at node 19)
Minimum accepted packet rate = 0.017 (at node 2)
Average accepted packet rate = 0.0249635
Maximum accepted packet rate = 0.031 (at node 7)
Minimum injected flit rate = 0.0353333 (at node 6)
Average injected flit rate = 0.0500833
Maximum injected flit rate = 0.0663333 (at node 19)
Minimum accepted flit rate = 0.034 (at node 2)
Average accepted flit rate = 0.0499323
Maximum accepted flit rate = 0.062 (at node 7)
Average injected packet length = 2
Average accepted packet length = 2.00021
Total in-flight flits = 128 (128 measured)
latency change    = 0.00336589
throughput change = 0.00159052
latency change    = 0.000237968
throughput change = 0.00881402
Draining all recorded packets ...
Draining remaining packets ...
Time taken is 6130 cycles
====== Traffic class 0 ======
Overall minimum packet latency = 8 (1 samples)
Overall average packet latency = 37.3288 (1 samples)
Overall maximum packet latency = 107 (1 samples)
Overall minimum network latency = 8 (1 samples)
Overall average network latency = 37.0995 (1 samples)
Overall maximum network latency = 107 (1 samples)
Overall minimum flit latency = 5 (1 samples)
Overall average flit latency = 35.6376 (1 samples)
Overall maximum flit latency = 106 (1 samples)
Overall minimum fragmentation = 0 (1 samples)
Overall average fragmentation = 0.982079 (1 samples)
Overall maximum fragmentation = 19 (1 samples)
Overall minimum injected packet rate = 0.084 (1 samples)
Overall average injected packet rate = 0.0950312 (1 samples)
Overall maximum injected packet rate = 0.107 (1 samples)
Overall minimum accepted packet rate = 0.0853333 (1 samples)
Overall average accepted packet rate = 0.0949219 (1 samples)
Overall maximum accepted packet rate = 0.111333 (1 samples)
Overall minimum injected flit rate = 0.168 (1 samples)
Overall average injected flit rate = 0.190068 (1 samples)
Overall maximum injected flit rate = 0.214 (1 samples)
Overall minimum accepted flit rate = 0.171333 (1 samples)
Overall average accepted flit rate = 0.189927 (1 samples)
Overall maximum accepted flit rate = 0.222333 (1 samples)
Overall average injected packet size = 2.00005 (1 samples)
Overall average accepted packet size = 2.00088 (1 samples)
Overall average hops = 6.24108 (1 samples)
====== Traffic class 1 ======
Overall minimum packet latency = 8 (1 samples)
Overall average packet latency = 35.3097 (1 samples)
Overall maximum packet latency = 91 (1 samples)
Overall minimum network latency = 8 (1 samples)
Overall average network latency = 35.2856 (1 samples)
Overall maximum network latency = 91 (1 samples)
Overall minimum flit latency = 7 (1 samples)
Overall average flit latency = 34.3218 (1 samples)
Overall maximum flit latency = 90 (1 samples)
Overall minimum fragmentation = 0 (1 samples)
Overall average fragmentation = 0 (1 samples)
Overall maximum fragmentation = 0 (1 samples)
Overall minimum injected packet rate = 0.0176667 (1 samples)
Overall average injected packet rate = 0.0250417 (1 samples)
Overall maximum injected packet rate = 0.0333333 (1 samples)
Overall minimum accepted packet rate = 0.017 (1 samples)
Overall average accepted packet rate = 0.0249635 (1 samples)
Overall maximum accepted packet rate = 0.031 (1 samples)
Overall minimum injected flit rate = 0.0353333 (1 samples)
Overall average injected flit rate = 0.0500833 (1 samples)
Overall maximum injected flit rate = 0.0663333 (1 samples)
Overall minimum accepted flit rate = 0.034 (1 samples)
Overall average accepted flit rate = 0.0499323 (1 samples)
Overall maximum accepted flit rate = 0.062 (1 samples)
Overall average injected packet size = 2 (1 samples)
Overall average accepted packet size = 2.00021 (1 samples)
Overall average hops = 6.23544 (1 samples)
Total run time 15.3725
