BEGIN Configuration File: ./examples/project_inputs/config-iqevc_tp-transpose_c1ir-0.05_c0ir-0.21
//
// EVC Router Config File -         
//
// Jason Deng, Mike Wang        
//        

//
// Flow control
//

num_vcs     = 5;
vc_buf_size = 6;

wait_for_tail_credit = 0;

vc_allocator = select;
sw_allocator = select;
alloc_iters  = 2;

credit_delay   = 2;
routing_delay  = 1;
vc_alloc_delay = 1;
sw_alloc_delay = 1;
st_final_delay = 1;

input_speedup     = 1;
output_speedup    = 1;
internal_speedup  = 1.0;

//
// Traffic
//

sim_type = latency;

warmup_periods = 3;
sample_period  = 1000;
sim_count = 1;

//
//topoogy
//

topology = mesh;
k  = 8;
n  = 2;

//
// Routing
//

router = iqevc;
routing_function = dor;

packet_size = 2;
use_read_write = 0;

traffic  = transpose;
injection_rate = {0.21,0.05};
injection_rate_uses_flits = 1;

classes = 2;
class_priority = {0,1};
priority = class;

noq = 0;
hold_switch_for_packet = 0;
vc_prioritize_empty = 0;

//
// express virtual channel settings
//

evc = 1;
num_evcs = 1;
evc_prioritized_class = 1;
selective_vc_request = 1;
hold_switch_for_evc_packet = 1;
evc_next_route = 1;

END Configuration File: ./examples/project_inputs/config-iqevc_tp-transpose_c1ir-0.05_c0ir-0.21
0
Class 0:
Minimum packet latency = 8
Average packet latency = 80.8631
Maximum packet latency = 831
Minimum network latency = 8
Average network latency = 80.0856
Maximum network latency = 831
Slowest packet = 1064
Minimum flit latency = 5
Average flit latency = 78.386
Maximum flit latency = 830
Slowest flit = 2128
Minimum fragmentation = 0
Average fragmentation = 1.41859
Maximum fragmentation = 53
Minimum injected packet rate = 0.032 (at node 6)
Average injected packet rate = 0.088625
Maximum injected packet rate = 0.124 (at node 10)
Minimum accepted packet rate = 0.013 (at node 7)
Average accepted packet rate = 0.0766719
Maximum accepted packet rate = 0.122 (at node 17)
Minimum injected flit rate = 0.064 (at node 6)
Average injected flit rate = 0.177109
Maximum injected flit rate = 0.248 (at node 10)
Minimum accepted flit rate = 0.026 (at node 7)
Average accepted flit rate = 0.153562
Maximum accepted flit rate = 0.244 (at node 17)
Average injected packet length = 1.99841
Average accepted packet length = 2.00285
Total in-flight flits = 1554 (0 measured)
Class 1:
Minimum packet latency = 8
Average packet latency = 55.303
Maximum packet latency = 679
Minimum network latency = 8
Average network latency = 53.7357
Maximum network latency = 673
Slowest packet = 2287
Minimum flit latency = 7
Average flit latency = 52.6004
Maximum flit latency = 672
Slowest flit = 5214
Minimum fragmentation = 0
Average fragmentation = 0
Maximum fragmentation = 0
Minimum injected packet rate = 0.006 (at node 57)
Average injected packet rate = 0.0244844
Maximum injected packet rate = 0.035 (at node 50)
Minimum accepted packet rate = 0.003 (at node 15)
Average accepted packet rate = 0.0221719
Maximum accepted packet rate = 0.034 (at node 37)
Minimum injected flit rate = 0.012 (at node 57)
Average injected flit rate = 0.0488906
Maximum injected flit rate = 0.07 (at node 50)
Minimum accepted flit rate = 0.006 (at node 15)
Average accepted flit rate = 0.0443438
Maximum accepted flit rate = 0.068 (at node 37)
Average injected packet length = 1.99681
Average accepted packet length = 2
Total in-flight flits = 314 (0 measured)
latency change    = 1
throughput change = 1
latency change    = 1
throughput change = 1
0
Class 0:
Minimum packet latency = 8
Average packet latency = 117.107
Maximum packet latency = 1813
Minimum network latency = 8
Average network latency = 104.702
Maximum network latency = 1813
Slowest packet = 1417
Minimum flit latency = 5
Average flit latency = 102.824
Maximum flit latency = 1812
Slowest flit = 2834
Minimum fragmentation = 0
Average fragmentation = 1.60865
Maximum fragmentation = 86
Minimum injected packet rate = 0.021 (at node 57)
Average injected packet rate = 0.0830156
Maximum injected packet rate = 0.1175 (at node 28)
Minimum accepted packet rate = 0.008 (at node 7)
Average accepted packet rate = 0.0766172
Maximum accepted packet rate = 0.115 (at node 17)
Minimum injected flit rate = 0.042 (at node 57)
Average injected flit rate = 0.165945
Maximum injected flit rate = 0.235 (at node 28)
Minimum accepted flit rate = 0.016 (at node 7)
Average accepted flit rate = 0.153305
Maximum accepted flit rate = 0.23 (at node 17)
Average injected packet length = 1.99896
Average accepted packet length = 2.00092
Total in-flight flits = 1665 (0 measured)
Class 1:
Minimum packet latency = 8
Average packet latency = 91.118
Maximum packet latency = 1510
Minimum network latency = 8
Average network latency = 76.7395
Maximum network latency = 1510
Slowest packet = 2565
Minimum flit latency = 7
Average flit latency = 75.3913
Maximum flit latency = 1509
Slowest flit = 5130
Minimum fragmentation = 0
Average fragmentation = 0
Maximum fragmentation = 0
Minimum injected packet rate = 0.019 (at node 9)
Average injected packet rate = 0.0256328
Maximum injected packet rate = 0.034 (at node 19)
Minimum accepted packet rate = 0.011 (at node 15)
Average accepted packet rate = 0.0242344
Maximum accepted packet rate = 0.034 (at node 26)
Minimum injected flit rate = 0.038 (at node 9)
Average injected flit rate = 0.0512344
Maximum injected flit rate = 0.068 (at node 19)
Minimum accepted flit rate = 0.0225 (at node 15)
Average accepted flit rate = 0.0485
Maximum accepted flit rate = 0.068 (at node 26)
Average injected packet length = 1.99878
Average accepted packet length = 2.00129
Total in-flight flits = 370 (0 measured)
latency change    = 0.309495
throughput change = 0.0016817
latency change    = 0.393061
throughput change = 0.0856959
0
Class 0:
Minimum packet latency = 8
Average packet latency = 251.516
Maximum packet latency = 2597
Minimum network latency = 8
Average network latency = 157.193
Maximum network latency = 2597
Slowest packet = 1917
Minimum flit latency = 5
Average flit latency = 154.954
Maximum flit latency = 2596
Slowest flit = 3835
Minimum fragmentation = 0
Average fragmentation = 1.72075
Maximum fragmentation = 94
Minimum injected packet rate = 0.001 (at node 6)
Average injected packet rate = 0.0776875
Maximum injected packet rate = 0.118 (at node 18)
Minimum accepted packet rate = 0.005 (at node 15)
Average accepted packet rate = 0.0773281
Maximum accepted packet rate = 0.12 (at node 55)
Minimum injected flit rate = 0.002 (at node 6)
Average injected flit rate = 0.155453
Maximum injected flit rate = 0.236 (at node 18)
Minimum accepted flit rate = 0.01 (at node 15)
Average accepted flit rate = 0.154609
Maximum accepted flit rate = 0.24 (at node 55)
Average injected packet length = 2.00101
Average accepted packet length = 1.99939
Total in-flight flits = 1724 (0 measured)
Class 1:
Minimum packet latency = 8
Average packet latency = 128.847
Maximum packet latency = 2514
Minimum network latency = 8
Average network latency = 100.635
Maximum network latency = 1928
Slowest packet = 5413
Minimum flit latency = 7
Average flit latency = 99.0937
Maximum flit latency = 1927
Slowest flit = 10826
Minimum fragmentation = 0
Average fragmentation = 0
Maximum fragmentation = 0
Minimum injected packet rate = 0.012 (at node 27)
Average injected packet rate = 0.0240313
Maximum injected packet rate = 0.039 (at node 9)
Minimum accepted packet rate = 0.011 (at node 25)
Average accepted packet rate = 0.0240156
Maximum accepted packet rate = 0.04 (at node 9)
Minimum injected flit rate = 0.024 (at node 27)
Average injected flit rate = 0.0480156
Maximum injected flit rate = 0.078 (at node 9)
Minimum accepted flit rate = 0.022 (at node 25)
Average accepted flit rate = 0.0480156
Maximum accepted flit rate = 0.079 (at node 9)
Average injected packet length = 1.99805
Average accepted packet length = 1.99935
Total in-flight flits = 377 (0 measured)
latency change    = 0.534395
throughput change = 0.00843861
latency change    = 0.292821
throughput change = 0.0100879
Average latency for class 0 exceeded 500 cycles. Aborting simulation.
Too many sample periods needed to converge
Simulation unstable, ending ...
Total run time 8.32674
