BEGIN Configuration File: ./examples/project_inputs/config-iqevc_tp-bitcomp_c1ir-0.05_c0ir-0.35_prio-select
//
// EVC Router Config File -         
//
// Jason Deng, Mike Wang        
//        

//
// Flow control
//

num_vcs     = 5;
vc_buf_size = 6;

wait_for_tail_credit = 0;

vc_allocator = select;
sw_allocator = select;
alloc_iters  = 2;

credit_delay   = 2;
routing_delay  = 1;
vc_alloc_delay = 1;
sw_alloc_delay = 1;
st_final_delay = 1;

input_speedup     = 1;
output_speedup    = 1;
internal_speedup  = 1.0;

//
// Traffic
//

sim_type = latency;

warmup_periods = 3;
sample_period  = 1000;
sim_count = 1;

//
//topoogy
//

topology = mesh;
k  = 8;
n  = 2;

//
// Routing
//

router = iqevc;
routing_function = dor;

packet_size = 2;
use_read_write = 0;

traffic  = bitcomp;
injection_rate = {0.35,0.05};
injection_rate_uses_flits = 1;

classes = 2;
class_priority = {0,1};
priority = class;

noq = 0;
hold_switch_for_packet = 0;
vc_prioritize_empty = 0;

//
// express virtual channel settings
//

evc = 1;
num_evcs = 1;
evc_prioritized_class = 1;
selective_vc_request = 1;
hold_switch_for_evc_packet = 1;
evc_next_route = 0;

END Configuration File: ./examples/project_inputs/config-iqevc_tp-bitcomp_c1ir-0.05_c0ir-0.35_prio-select
0
Class 0:
Minimum packet latency = 18
Average packet latency = 226.826
Maximum packet latency = 905
Minimum network latency = 18
Average network latency = 216.462
Maximum network latency = 904
Slowest packet = 1058
Minimum flit latency = 17
Average flit latency = 215.05
Maximum flit latency = 903
Slowest flit = 2116
Minimum fragmentation = 0
Average fragmentation = 1.58634
Maximum fragmentation = 40
Minimum injected packet rate = 0.035 (at node 9)
Average injected packet rate = 0.0765469
Maximum injected packet rate = 0.168 (at node 27)
Minimum accepted packet rate = 0.012 (at node 15)
Average accepted packet rate = 0.0519375
Maximum accepted packet rate = 0.155 (at node 35)
Minimum injected flit rate = 0.07 (at node 9)
Average injected flit rate = 0.153
Maximum injected flit rate = 0.336 (at node 27)
Minimum accepted flit rate = 0.024 (at node 15)
Average accepted flit rate = 0.104109
Maximum accepted flit rate = 0.31 (at node 35)
Average injected packet length = 1.99878
Average accepted packet length = 2.00451
Total in-flight flits = 3241 (0 measured)
Class 1:
Minimum packet latency = 18
Average packet latency = 152.996
Maximum packet latency = 780
Minimum network latency = 18
Average network latency = 125.575
Maximum network latency = 780
Slowest packet = 2515
Minimum flit latency = 17
Average flit latency = 123.973
Maximum flit latency = 779
Slowest flit = 5030
Minimum fragmentation = 0
Average fragmentation = 0
Maximum fragmentation = 0
Minimum injected packet rate = 0.01 (at node 48)
Average injected packet rate = 0.0226094
Maximum injected packet rate = 0.037 (at node 33)
Minimum accepted packet rate = 0.005 (at node 1)
Average accepted packet rate = 0.0174688
Maximum accepted packet rate = 0.031 (at node 30)
Minimum injected flit rate = 0.02 (at node 48)
Average injected flit rate = 0.0451406
Maximum injected flit rate = 0.074 (at node 33)
Minimum accepted flit rate = 0.01 (at node 1)
Average accepted flit rate = 0.0349687
Maximum accepted flit rate = 0.062 (at node 30)
Average injected packet length = 1.99654
Average accepted packet length = 2.00179
Total in-flight flits = 704 (0 measured)
latency change    = 1
throughput change = 1
latency change    = 1
throughput change = 1
0
Class 0:
Minimum packet latency = 18
Average packet latency = 444.776
Maximum packet latency = 1828
Minimum network latency = 18
Average network latency = 331.526
Maximum network latency = 1828
Slowest packet = 1877
Minimum flit latency = 17
Average flit latency = 329.435
Maximum flit latency = 1827
Slowest flit = 3754
Minimum fragmentation = 0
Average fragmentation = 1.68648
Maximum fragmentation = 58
Minimum injected packet rate = 0.0195 (at node 49)
Average injected packet rate = 0.0584609
Maximum injected packet rate = 0.1725 (at node 27)
Minimum accepted packet rate = 0.01 (at node 15)
Average accepted packet rate = 0.046125
Maximum accepted packet rate = 0.163 (at node 36)
Minimum injected flit rate = 0.039 (at node 49)
Average injected flit rate = 0.116867
Maximum injected flit rate = 0.345 (at node 27)
Minimum accepted flit rate = 0.02 (at node 15)
Average accepted flit rate = 0.0923125
Maximum accepted flit rate = 0.326 (at node 36)
Average injected packet length = 1.99906
Average accepted packet length = 2.00136
Total in-flight flits = 3258 (0 measured)
Class 1:
Minimum packet latency = 18
Average packet latency = 245.386
Maximum packet latency = 1691
Minimum network latency = 18
Average network latency = 175.268
Maximum network latency = 1566
Slowest packet = 3526
Minimum flit latency = 17
Average flit latency = 173.607
Maximum flit latency = 1565
Slowest flit = 7052
Minimum fragmentation = 0
Average fragmentation = 0
Maximum fragmentation = 0
Minimum injected packet rate = 0.016 (at node 19)
Average injected packet rate = 0.024625
Maximum injected packet rate = 0.033 (at node 14)
Minimum accepted packet rate = 0.012 (at node 61)
Average accepted packet rate = 0.0220937
Maximum accepted packet rate = 0.0315 (at node 49)
Minimum injected flit rate = 0.032 (at node 19)
Average injected flit rate = 0.0492344
Maximum injected flit rate = 0.066 (at node 14)
Minimum accepted flit rate = 0.024 (at node 61)
Average accepted flit rate = 0.0441953
Maximum accepted flit rate = 0.063 (at node 49)
Average injected packet length = 1.99937
Average accepted packet length = 2.00035
Total in-flight flits = 699 (0 measured)
latency change    = 0.490022
throughput change = 0.127793
latency change    = 0.376507
throughput change = 0.208768
Average latency for class 0 exceeded 500 cycles. Aborting simulation.
Too many sample periods needed to converge
Simulation unstable, ending ...
Total run time 2.06301
