BEGIN Configuration File: ./examples/project_inputs/config-iqevc_tp-uniform_c1ir-0.05_c0ir-0.21_prio-select
//
// EVC Router Config File -         
//
// Jason Deng, Mike Wang        
//        

//
// Flow control
//

num_vcs     = 5;
vc_buf_size = 6;

wait_for_tail_credit = 0;

vc_allocator = select;
sw_allocator = select;
alloc_iters  = 2;

credit_delay   = 2;
routing_delay  = 1;
vc_alloc_delay = 1;
sw_alloc_delay = 1;
st_final_delay = 1;

input_speedup     = 1;
output_speedup    = 1;
internal_speedup  = 1.0;

//
// Traffic
//

sim_type = latency;

warmup_periods = 3;
sample_period  = 1000;
sim_count = 1;

//
//topoogy
//

topology = mesh;
k  = 8;
n  = 2;

//
// Routing
//

router = iqevc;
routing_function = dor;

packet_size = 2;
use_read_write = 0;

traffic  = uniform;
injection_rate = {0.21,0.05};
injection_rate_uses_flits = 1;

classes = 2;
class_priority = {0,1};
priority = class;

noq = 0;
hold_switch_for_packet = 0;
vc_prioritize_empty = 0;

//
// express virtual channel settings
//

evc = 1;
num_evcs = 1;
evc_prioritized_class = 1;
selective_vc_request = 1;
hold_switch_for_evc_packet = 1;
evc_next_route = 0;

END Configuration File: ./examples/project_inputs/config-iqevc_tp-uniform_c1ir-0.05_c0ir-0.21_prio-select
0
Class 0:
Minimum packet latency = 8
Average packet latency = 37.5028
Maximum packet latency = 105
Minimum network latency = 8
Average network latency = 37.2624
Maximum network latency = 105
Slowest packet = 5080
Minimum flit latency = 7
Average flit latency = 35.7228
Maximum flit latency = 104
Slowest flit = 10161
Minimum fragmentation = 0
Average fragmentation = 1.02654
Maximum fragmentation = 20
Minimum injected packet rate = 0.078 (at node 45)
Average injected packet rate = 0.103016
Maximum injected packet rate = 0.134 (at node 59)
Minimum accepted packet rate = 0.077 (at node 30)
Average accepted packet rate = 0.0989219
Maximum accepted packet rate = 0.123 (at node 14)
Minimum injected flit rate = 0.156 (at node 45)
Average injected flit rate = 0.205937
Maximum injected flit rate = 0.267 (at node 59)
Minimum accepted flit rate = 0.154 (at node 30)
Average accepted flit rate = 0.198094
Maximum accepted flit rate = 0.246 (at node 14)
Average injected packet length = 1.99909
Average accepted packet length = 2.00253
Total in-flight flits = 508 (0 measured)
Class 1:
Minimum packet latency = 8
Average packet latency = 35.2569
Maximum packet latency = 80
Minimum network latency = 8
Average network latency = 35.2247
Maximum network latency = 80
Slowest packet = 1372
Minimum flit latency = 7
Average flit latency = 34.2281
Maximum flit latency = 79
Slowest flit = 2744
Minimum fragmentation = 0
Average fragmentation = 0
Maximum fragmentation = 0
Minimum injected packet rate = 0.014 (at node 33)
Average injected packet rate = 0.0255
Maximum injected packet rate = 0.036 (at node 2)
Minimum accepted packet rate = 0.017 (at node 5)
Average accepted packet rate = 0.02475
Maximum accepted packet rate = 0.037 (at node 34)
Minimum injected flit rate = 0.028 (at node 33)
Average injected flit rate = 0.0509844
Maximum injected flit rate = 0.072 (at node 2)
Minimum accepted flit rate = 0.034 (at node 5)
Average accepted flit rate = 0.0495312
Maximum accepted flit rate = 0.074 (at node 34)
Average injected packet length = 1.99939
Average accepted packet length = 2.00126
Total in-flight flits = 94 (0 measured)
latency change    = 1
throughput change = 1
latency change    = 1
throughput change = 1
0
Class 0:
Minimum packet latency = 8
Average packet latency = 37.6813
Maximum packet latency = 105
Minimum network latency = 8
Average network latency = 37.4335
Maximum network latency = 105
Slowest packet = 5080
Minimum flit latency = 7
Average flit latency = 35.8919
Maximum flit latency = 104
Slowest flit = 10161
Minimum fragmentation = 0
Average fragmentation = 1.0181
Maximum fragmentation = 21
Minimum injected packet rate = 0.083 (at node 45)
Average injected packet rate = 0.103117
Maximum injected packet rate = 0.1195 (at node 8)
Minimum accepted packet rate = 0.0875 (at node 25)
Average accepted packet rate = 0.101016
Maximum accepted packet rate = 0.116 (at node 14)
Minimum injected flit rate = 0.166 (at node 45)
Average injected flit rate = 0.206156
Maximum injected flit rate = 0.239 (at node 8)
Minimum accepted flit rate = 0.175 (at node 30)
Average accepted flit rate = 0.202117
Maximum accepted flit rate = 0.232 (at node 14)
Average injected packet length = 1.99924
Average accepted packet length = 2.00085
Total in-flight flits = 529 (0 measured)
Class 1:
Minimum packet latency = 8
Average packet latency = 35.6011
Maximum packet latency = 80
Minimum network latency = 8
Average network latency = 35.5673
Maximum network latency = 80
Slowest packet = 1372
Minimum flit latency = 7
Average flit latency = 34.5655
Maximum flit latency = 79
Slowest flit = 2744
Minimum fragmentation = 0
Average fragmentation = 0
Maximum fragmentation = 0
Minimum injected packet rate = 0.015 (at node 33)
Average injected packet rate = 0.0253984
Maximum injected packet rate = 0.033 (at node 38)
Minimum accepted packet rate = 0.016 (at node 36)
Average accepted packet rate = 0.0249688
Maximum accepted packet rate = 0.0335 (at node 58)
Minimum injected flit rate = 0.03 (at node 33)
Average injected flit rate = 0.0507891
Maximum injected flit rate = 0.066 (at node 38)
Minimum accepted flit rate = 0.032 (at node 36)
Average accepted flit rate = 0.0499453
Maximum accepted flit rate = 0.067 (at node 58)
Average injected packet length = 1.99969
Average accepted packet length = 2.00031
Total in-flight flits = 109 (0 measured)
latency change    = 0.00473762
throughput change = 0.0199065
latency change    = 0.00966599
throughput change = 0.00829032
0
Class 0:
Minimum packet latency = 8
Average packet latency = 37.946
Maximum packet latency = 89
Minimum network latency = 8
Average network latency = 37.6953
Maximum network latency = 89
Slowest packet = 19214
Minimum flit latency = 7
Average flit latency = 36.16
Maximum flit latency = 88
Slowest flit = 38429
Minimum fragmentation = 0
Average fragmentation = 1.02391
Maximum fragmentation = 31
Minimum injected packet rate = 0.083 (at node 39)
Average injected packet rate = 0.102906
Maximum injected packet rate = 0.124 (at node 5)
Minimum accepted packet rate = 0.083 (at node 12)
Average accepted packet rate = 0.103266
Maximum accepted packet rate = 0.122 (at node 25)
Minimum injected flit rate = 0.166 (at node 39)
Average injected flit rate = 0.205844
Maximum injected flit rate = 0.248 (at node 5)
Minimum accepted flit rate = 0.166 (at node 12)
Average accepted flit rate = 0.206422
Maximum accepted flit rate = 0.243 (at node 25)
Average injected packet length = 2.0003
Average accepted packet length = 1.99894
Total in-flight flits = 488 (0 measured)
Class 1:
Minimum packet latency = 8
Average packet latency = 35.6754
Maximum packet latency = 84
Minimum network latency = 8
Average network latency = 35.6537
Maximum network latency = 84
Slowest packet = 16441
Minimum flit latency = 7
Average flit latency = 34.6559
Maximum flit latency = 83
Slowest flit = 32882
Minimum fragmentation = 0
Average fragmentation = 0
Maximum fragmentation = 0
Minimum injected packet rate = 0.01 (at node 51)
Average injected packet rate = 0.0243594
Maximum injected packet rate = 0.041 (at node 58)
Minimum accepted packet rate = 0.007 (at node 16)
Average accepted packet rate = 0.0244531
Maximum accepted packet rate = 0.037 (at node 54)
Minimum injected flit rate = 0.02 (at node 51)
Average injected flit rate = 0.0487187
Maximum injected flit rate = 0.082 (at node 58)
Minimum accepted flit rate = 0.014 (at node 16)
Average accepted flit rate = 0.0489062
Maximum accepted flit rate = 0.074 (at node 54)
Average injected packet length = 2
Average accepted packet length = 2
Total in-flight flits = 97 (0 measured)
latency change    = 0.00697568
throughput change = 0.0208538
latency change    = 0.00208366
throughput change = 0.021246
Warmed up ...Time used is 3000 cycles
1
Class 0:
Minimum packet latency = 8
Average packet latency = 37.3801
Maximum packet latency = 96
Minimum network latency = 8
Average network latency = 37.1292
Maximum network latency = 96
Slowest packet = 26167
Minimum flit latency = 7
Average flit latency = 35.8552
Maximum flit latency = 95
Slowest flit = 52335
Minimum fragmentation = 0
Average fragmentation = 1.0226
Maximum fragmentation = 21
Minimum injected packet rate = 0.085 (at node 15)
Average injected packet rate = 0.104328
Maximum injected packet rate = 0.128 (at node 19)
Minimum accepted packet rate = 0.081 (at node 43)
Average accepted packet rate = 0.104094
Maximum accepted packet rate = 0.121 (at node 31)
Minimum injected flit rate = 0.17 (at node 15)
Average injected flit rate = 0.208687
Maximum injected flit rate = 0.256 (at node 19)
Minimum accepted flit rate = 0.161 (at node 43)
Average accepted flit rate = 0.208391
Maximum accepted flit rate = 0.242 (at node 31)
Average injected packet length = 2.0003
Average accepted packet length = 2.00195
Total in-flight flits = 505 (505 measured)
Class 1:
Minimum packet latency = 8
Average packet latency = 35.2296
Maximum packet latency = 79
Minimum network latency = 8
Average network latency = 35.2008
Maximum network latency = 79
Slowest packet = 25030
Minimum flit latency = 7
Average flit latency = 34.3704
Maximum flit latency = 78
Slowest flit = 50060
Minimum fragmentation = 0
Average fragmentation = 0
Maximum fragmentation = 0
Minimum injected packet rate = 0.011 (at node 36)
Average injected packet rate = 0.0249219
Maximum injected packet rate = 0.041 (at node 49)
Minimum accepted packet rate = 0.015 (at node 4)
Average accepted packet rate = 0.0246563
Maximum accepted packet rate = 0.035 (at node 51)
Minimum injected flit rate = 0.022 (at node 36)
Average injected flit rate = 0.0498125
Maximum injected flit rate = 0.082 (at node 49)
Minimum accepted flit rate = 0.03 (at node 4)
Average accepted flit rate = 0.0493125
Maximum accepted flit rate = 0.07 (at node 51)
Average injected packet length = 1.99875
Average accepted packet length = 2
Total in-flight flits = 131 (131 measured)
latency change    = 0.0151374
throughput change = 0.0094474
latency change    = 0.0126552
throughput change = 0.00823828
1
Class 0:
Minimum packet latency = 8
Average packet latency = 37.5462
Maximum packet latency = 100
Minimum network latency = 8
Average network latency = 37.2899
Maximum network latency = 99
Slowest packet = 35354
Minimum flit latency = 7
Average flit latency = 35.8705
Maximum flit latency = 98
Slowest flit = 70709
Minimum fragmentation = 0
Average fragmentation = 1.03923
Maximum fragmentation = 21
Minimum injected packet rate = 0.089 (at node 1)
Average injected packet rate = 0.105102
Maximum injected packet rate = 0.1215 (at node 43)
Minimum accepted packet rate = 0.09 (at node 40)
Average accepted packet rate = 0.10507
Maximum accepted packet rate = 0.1175 (at node 53)
Minimum injected flit rate = 0.178 (at node 1)
Average injected flit rate = 0.210219
Maximum injected flit rate = 0.243 (at node 43)
Minimum accepted flit rate = 0.18 (at node 40)
Average accepted flit rate = 0.210227
Maximum accepted flit rate = 0.235 (at node 53)
Average injected packet length = 2.00015
Average accepted packet length = 2.00082
Total in-flight flits = 487 (487 measured)
Class 1:
Minimum packet latency = 8
Average packet latency = 35.1152
Maximum packet latency = 79
Minimum network latency = 8
Average network latency = 35.088
Maximum network latency = 79
Slowest packet = 25030
Minimum flit latency = 7
Average flit latency = 34.176
Maximum flit latency = 78
Slowest flit = 50060
Minimum fragmentation = 0
Average fragmentation = 0
Maximum fragmentation = 0
Minimum injected packet rate = 0.0135 (at node 36)
Average injected packet rate = 0.0247266
Maximum injected packet rate = 0.0325 (at node 33)
Minimum accepted packet rate = 0.018 (at node 49)
Average accepted packet rate = 0.0247188
Maximum accepted packet rate = 0.032 (at node 20)
Minimum injected flit rate = 0.027 (at node 36)
Average injected flit rate = 0.0494609
Maximum injected flit rate = 0.065 (at node 33)
Minimum accepted flit rate = 0.036 (at node 49)
Average accepted flit rate = 0.0494375
Maximum accepted flit rate = 0.064 (at node 20)
Average injected packet length = 2.00032
Average accepted packet length = 2
Total in-flight flits = 99 (99 measured)
latency change    = 0.00442177
throughput change = 0.00873314
latency change    = 0.00325537
throughput change = 0.00252845
1
Class 0:
Minimum packet latency = 8
Average packet latency = 37.7925
Maximum packet latency = 103
Minimum network latency = 8
Average network latency = 37.5337
Maximum network latency = 103
Slowest packet = 45292
Minimum flit latency = 7
Average flit latency = 36.0533
Maximum flit latency = 102
Slowest flit = 90585
Minimum fragmentation = 0
Average fragmentation = 1.07183
Maximum fragmentation = 22
Minimum injected packet rate = 0.0923333 (at node 16)
Average injected packet rate = 0.105375
Maximum injected packet rate = 0.116667 (at node 8)
Minimum accepted packet rate = 0.089 (at node 43)
Average accepted packet rate = 0.105255
Maximum accepted packet rate = 0.115667 (at node 19)
Minimum injected flit rate = 0.184667 (at node 16)
Average injected flit rate = 0.210766
Maximum injected flit rate = 0.233333 (at node 8)
Minimum accepted flit rate = 0.178333 (at node 43)
Average accepted flit rate = 0.210583
Maximum accepted flit rate = 0.231333 (at node 19)
Average injected packet length = 2.00015
Average accepted packet length = 2.00069
Total in-flight flits = 520 (520 measured)
Class 1:
Minimum packet latency = 8
Average packet latency = 35.4129
Maximum packet latency = 84
Minimum network latency = 8
Average network latency = 35.3862
Maximum network latency = 84
Slowest packet = 41819
Minimum flit latency = 7
Average flit latency = 34.443
Maximum flit latency = 83
Slowest flit = 83638
Minimum fragmentation = 0
Average fragmentation = 0
Maximum fragmentation = 0
Minimum injected packet rate = 0.0156667 (at node 6)
Average injected packet rate = 0.0249635
Maximum injected packet rate = 0.031 (at node 32)
Minimum accepted packet rate = 0.0193333 (at node 44)
Average accepted packet rate = 0.0248802
Maximum accepted packet rate = 0.032 (at node 20)
Minimum injected flit rate = 0.0313333 (at node 6)
Average injected flit rate = 0.0499271
Maximum injected flit rate = 0.062 (at node 32)
Minimum accepted flit rate = 0.0386667 (at node 44)
Average accepted flit rate = 0.0497604
Maximum accepted flit rate = 0.064 (at node 20)
Average injected packet length = 2
Average accepted packet length = 2
Total in-flight flits = 129 (129 measured)
latency change    = 0.00651723
throughput change = 0.0016942
latency change    = 0.00840403
throughput change = 0.00648943
Draining all recorded packets ...
Draining remaining packets ...
Time taken is 6157 cycles
====== Traffic class 0 ======
Overall minimum packet latency = 8 (1 samples)
Overall average packet latency = 37.8911 (1 samples)
Overall maximum packet latency = 103 (1 samples)
Overall minimum network latency = 8 (1 samples)
Overall average network latency = 37.6304 (1 samples)
Overall maximum network latency = 103 (1 samples)
Overall minimum flit latency = 7 (1 samples)
Overall average flit latency = 36.1642 (1 samples)
Overall maximum flit latency = 102 (1 samples)
Overall minimum fragmentation = 0 (1 samples)
Overall average fragmentation = 1.07349 (1 samples)
Overall maximum fragmentation = 22 (1 samples)
Overall minimum injected packet rate = 0.0923333 (1 samples)
Overall average injected packet rate = 0.105375 (1 samples)
Overall maximum injected packet rate = 0.116667 (1 samples)
Overall minimum accepted packet rate = 0.089 (1 samples)
Overall average accepted packet rate = 0.105255 (1 samples)
Overall maximum accepted packet rate = 0.115667 (1 samples)
Overall minimum injected flit rate = 0.184667 (1 samples)
Overall average injected flit rate = 0.210766 (1 samples)
Overall maximum injected flit rate = 0.233333 (1 samples)
Overall minimum accepted flit rate = 0.178333 (1 samples)
Overall average accepted flit rate = 0.210583 (1 samples)
Overall maximum accepted flit rate = 0.231333 (1 samples)
Overall average injected packet size = 2.00015 (1 samples)
Overall average accepted packet size = 2.00069 (1 samples)
Overall average hops = 6.24716 (1 samples)
====== Traffic class 1 ======
Overall minimum packet latency = 8 (1 samples)
Overall average packet latency = 35.5005 (1 samples)
Overall maximum packet latency = 84 (1 samples)
Overall minimum network latency = 8 (1 samples)
Overall average network latency = 35.4734 (1 samples)
Overall maximum network latency = 84 (1 samples)
Overall minimum flit latency = 7 (1 samples)
Overall average flit latency = 34.5044 (1 samples)
Overall maximum flit latency = 83 (1 samples)
Overall minimum fragmentation = 0 (1 samples)
Overall average fragmentation = 0 (1 samples)
Overall maximum fragmentation = 0 (1 samples)
Overall minimum injected packet rate = 0.0156667 (1 samples)
Overall average injected packet rate = 0.0249635 (1 samples)
Overall maximum injected packet rate = 0.031 (1 samples)
Overall minimum accepted packet rate = 0.0193333 (1 samples)
Overall average accepted packet rate = 0.0248802 (1 samples)
Overall maximum accepted packet rate = 0.032 (1 samples)
Overall minimum injected flit rate = 0.0313333 (1 samples)
Overall average injected flit rate = 0.0499271 (1 samples)
Overall maximum injected flit rate = 0.062 (1 samples)
Overall minimum accepted flit rate = 0.0386667 (1 samples)
Overall average accepted flit rate = 0.0497604 (1 samples)
Overall maximum accepted flit rate = 0.064 (1 samples)
Overall average injected packet size = 2 (1 samples)
Overall average accepted packet size = 2 (1 samples)
Overall average hops = 6.26706 (1 samples)
Total run time 6.4355
