BEGIN Configuration File: ./examples/project_inputs/config-iqevc_tp-transpose_c1ir-0.05_c0ir-0.09_prio-select
//
// EVC Router Config File -         
//
// Jason Deng, Mike Wang        
//        

//
// Flow control
//

num_vcs     = 5;
vc_buf_size = 6;

wait_for_tail_credit = 0;

vc_allocator = select;
sw_allocator = select;
alloc_iters  = 2;

credit_delay   = 2;
routing_delay  = 1;
vc_alloc_delay = 1;
sw_alloc_delay = 1;
st_final_delay = 1;

input_speedup     = 1;
output_speedup    = 1;
internal_speedup  = 1.0;

//
// Traffic
//

sim_type = latency;

warmup_periods = 3;
sample_period  = 1000;
sim_count = 1;

//
//topoogy
//

topology = mesh;
k  = 8;
n  = 2;

//
// Routing
//

router = iqevc;
routing_function = dor;

packet_size = 2;
use_read_write = 0;

traffic  = transpose;
injection_rate = {0.09,0.05};
injection_rate_uses_flits = 1;

classes = 2;
class_priority = {0,1};
priority = class;

noq = 0;
hold_switch_for_packet = 0;
vc_prioritize_empty = 0;

//
// express virtual channel settings
//

evc = 1;
num_evcs = 1;
evc_prioritized_class = 1;
selective_vc_request = 1;
hold_switch_for_evc_packet = 1;
evc_next_route = 0;

END Configuration File: ./examples/project_inputs/config-iqevc_tp-transpose_c1ir-0.05_c0ir-0.09_prio-select
0
Class 0:
Minimum packet latency = 8
Average packet latency = 41.3878
Maximum packet latency = 204
Minimum network latency = 8
Average network latency = 41.2256
Maximum network latency = 204
Slowest packet = 1849
Minimum flit latency = 7
Average flit latency = 39.6516
Maximum flit latency = 203
Slowest flit = 3698
Minimum fragmentation = 0
Average fragmentation = 1.12136
Maximum fragmentation = 30
Minimum injected packet rate = 0.03 (at node 6)
Average injected packet rate = 0.0445625
Maximum injected packet rate = 0.059 (at node 32)
Minimum accepted packet rate = 0.025 (at node 48)
Average accepted packet rate = 0.042875
Maximum accepted packet rate = 0.057 (at node 4)
Minimum injected flit rate = 0.06 (at node 6)
Average injected flit rate = 0.0890781
Maximum injected flit rate = 0.118 (at node 32)
Minimum accepted flit rate = 0.05 (at node 48)
Average accepted flit rate = 0.0858437
Maximum accepted flit rate = 0.114 (at node 4)
Average injected packet length = 1.99895
Average accepted packet length = 2.00219
Total in-flight flits = 210 (0 measured)
Class 1:
Minimum packet latency = 8
Average packet latency = 36.0273
Maximum packet latency = 112
Minimum network latency = 8
Average network latency = 36.0032
Maximum network latency = 112
Slowest packet = 1577
Minimum flit latency = 7
Average flit latency = 34.9911
Maximum flit latency = 111
Slowest flit = 3154
Minimum fragmentation = 0
Average fragmentation = 0
Maximum fragmentation = 0
Minimum injected packet rate = 0.015 (at node 41)
Average injected packet rate = 0.0256406
Maximum injected packet rate = 0.038 (at node 16)
Minimum accepted packet rate = 0.015 (at node 13)
Average accepted packet rate = 0.0246094
Maximum accepted packet rate = 0.038 (at node 2)
Minimum injected flit rate = 0.03 (at node 41)
Average injected flit rate = 0.0512656
Maximum injected flit rate = 0.076 (at node 16)
Minimum accepted flit rate = 0.03 (at node 13)
Average accepted flit rate = 0.0492656
Maximum accepted flit rate = 0.076 (at node 2)
Average injected packet length = 1.99939
Average accepted packet length = 2.0019
Total in-flight flits = 129 (0 measured)
latency change    = 1
throughput change = 1
latency change    = 1
throughput change = 1
0
Class 0:
Minimum packet latency = 8
Average packet latency = 44.0801
Maximum packet latency = 391
Minimum network latency = 8
Average network latency = 43.9262
Maximum network latency = 391
Slowest packet = 6646
Minimum flit latency = 7
Average flit latency = 42.3688
Maximum flit latency = 390
Slowest flit = 13293
Minimum fragmentation = 0
Average fragmentation = 1.15765
Maximum fragmentation = 67
Minimum injected packet rate = 0.035 (at node 12)
Average injected packet rate = 0.0445625
Maximum injected packet rate = 0.0585 (at node 3)
Minimum accepted packet rate = 0.0335 (at node 33)
Average accepted packet rate = 0.0433125
Maximum accepted packet rate = 0.055 (at node 24)
Minimum injected flit rate = 0.07 (at node 12)
Average injected flit rate = 0.0890859
Maximum injected flit rate = 0.117 (at node 3)
Minimum accepted flit rate = 0.067 (at node 33)
Average accepted flit rate = 0.0866719
Maximum accepted flit rate = 0.11 (at node 24)
Average injected packet length = 1.99912
Average accepted packet length = 2.00108
Total in-flight flits = 316 (0 measured)
Class 1:
Minimum packet latency = 8
Average packet latency = 36.1002
Maximum packet latency = 124
Minimum network latency = 8
Average network latency = 36.0739
Maximum network latency = 124
Slowest packet = 7369
Minimum flit latency = 7
Average flit latency = 35.0726
Maximum flit latency = 123
Slowest flit = 14738
Minimum fragmentation = 0
Average fragmentation = 0
Maximum fragmentation = 0
Minimum injected packet rate = 0.0165 (at node 11)
Average injected packet rate = 0.0253984
Maximum injected packet rate = 0.0345 (at node 2)
Minimum accepted packet rate = 0.0165 (at node 25)
Average accepted packet rate = 0.0249453
Maximum accepted packet rate = 0.0335 (at node 16)
Minimum injected flit rate = 0.033 (at node 11)
Average injected flit rate = 0.0507891
Maximum injected flit rate = 0.069 (at node 2)
Minimum accepted flit rate = 0.033 (at node 25)
Average accepted flit rate = 0.0498984
Maximum accepted flit rate = 0.067 (at node 16)
Average injected packet length = 1.99969
Average accepted packet length = 2.00031
Total in-flight flits = 115 (0 measured)
latency change    = 0.0610782
throughput change = 0.00955471
latency change    = 0.00201987
throughput change = 0.012682
0
Class 0:
Minimum packet latency = 8
Average packet latency = 58.7768
Maximum packet latency = 546
Minimum network latency = 8
Average network latency = 58.6339
Maximum network latency = 546
Slowest packet = 7414
Minimum flit latency = 7
Average flit latency = 56.8894
Maximum flit latency = 545
Slowest flit = 14828
Minimum fragmentation = 0
Average fragmentation = 1.24956
Maximum fragmentation = 66
Minimum injected packet rate = 0.028 (at node 62)
Average injected packet rate = 0.0445313
Maximum injected packet rate = 0.058 (at node 4)
Minimum accepted packet rate = 0.03 (at node 55)
Average accepted packet rate = 0.0443906
Maximum accepted packet rate = 0.057 (at node 46)
Minimum injected flit rate = 0.056 (at node 62)
Average injected flit rate = 0.0891094
Maximum injected flit rate = 0.116 (at node 4)
Minimum accepted flit rate = 0.06 (at node 55)
Average accepted flit rate = 0.08875
Maximum accepted flit rate = 0.114 (at node 46)
Average injected packet length = 2.00105
Average accepted packet length = 1.9993
Total in-flight flits = 334 (0 measured)
Class 1:
Minimum packet latency = 8
Average packet latency = 37.2542
Maximum packet latency = 183
Minimum network latency = 8
Average network latency = 37.2272
Maximum network latency = 183
Slowest packet = 11426
Minimum flit latency = 7
Average flit latency = 36.2301
Maximum flit latency = 182
Slowest flit = 22852
Minimum fragmentation = 0
Average fragmentation = 0
Maximum fragmentation = 0
Minimum injected packet rate = 0.014 (at node 46)
Average injected packet rate = 0.0249375
Maximum injected packet rate = 0.034 (at node 21)
Minimum accepted packet rate = 0.015 (at node 53)
Average accepted packet rate = 0.0248906
Maximum accepted packet rate = 0.034 (at node 10)
Minimum injected flit rate = 0.028 (at node 46)
Average injected flit rate = 0.0498906
Maximum injected flit rate = 0.068 (at node 21)
Minimum accepted flit rate = 0.03 (at node 53)
Average accepted flit rate = 0.0497656
Maximum accepted flit rate = 0.068 (at node 10)
Average injected packet length = 2.00063
Average accepted packet length = 1.99937
Total in-flight flits = 122 (0 measured)
latency change    = 0.250043
throughput change = 0.0234155
latency change    = 0.0309768
throughput change = 0.00266876
Warmed up ...Time used is 3000 cycles
1
Class 0:
Minimum packet latency = 8
Average packet latency = 54.0159
Maximum packet latency = 580
Minimum network latency = 8
Average network latency = 53.8239
Maximum network latency = 580
Slowest packet = 13725
Minimum flit latency = 5
Average flit latency = 60.877
Maximum flit latency = 584
Slowest flit = 23582
Minimum fragmentation = 0
Average fragmentation = 1.00554
Maximum fragmentation = 30
Minimum injected packet rate = 0.03 (at node 63)
Average injected packet rate = 0.045
Maximum injected packet rate = 0.058 (at node 35)
Minimum accepted packet rate = 0.028 (at node 63)
Average accepted packet rate = 0.0449531
Maximum accepted packet rate = 0.059 (at node 28)
Minimum injected flit rate = 0.059 (at node 63)
Average injected flit rate = 0.0899531
Maximum injected flit rate = 0.116 (at node 35)
Minimum accepted flit rate = 0.056 (at node 63)
Average accepted flit rate = 0.0899688
Maximum accepted flit rate = 0.118 (at node 28)
Average injected packet length = 1.99896
Average accepted packet length = 2.00139
Total in-flight flits = 336 (336 measured)
Class 1:
Minimum packet latency = 8
Average packet latency = 35.8267
Maximum packet latency = 241
Minimum network latency = 8
Average network latency = 35.784
Maximum network latency = 241
Slowest packet = 15375
Minimum flit latency = 7
Average flit latency = 35.374
Maximum flit latency = 240
Slowest flit = 30750
Minimum fragmentation = 0
Average fragmentation = 0
Maximum fragmentation = 0
Minimum injected packet rate = 0.015 (at node 19)
Average injected packet rate = 0.0247344
Maximum injected packet rate = 0.035 (at node 37)
Minimum accepted packet rate = 0.015 (at node 26)
Average accepted packet rate = 0.02475
Maximum accepted packet rate = 0.034 (at node 14)
Minimum injected flit rate = 0.03 (at node 19)
Average injected flit rate = 0.0494375
Maximum injected flit rate = 0.07 (at node 37)
Minimum accepted flit rate = 0.03 (at node 26)
Average accepted flit rate = 0.0495469
Maximum accepted flit rate = 0.068 (at node 14)
Average injected packet length = 1.99874
Average accepted packet length = 2.00189
Total in-flight flits = 117 (117 measured)
latency change    = 0.08814
throughput change = 0.0135464
latency change    = 0.0398468
throughput change = 0.00441501
1
Class 0:
Minimum packet latency = 8
Average packet latency = 57.6328
Maximum packet latency = 657
Minimum network latency = 8
Average network latency = 57.3874
Maximum network latency = 657
Slowest packet = 15833
Minimum flit latency = 5
Average flit latency = 59.978
Maximum flit latency = 656
Slowest flit = 31666
Minimum fragmentation = 0
Average fragmentation = 1.15579
Maximum fragmentation = 64
Minimum injected packet rate = 0.0345 (at node 63)
Average injected packet rate = 0.0448047
Maximum injected packet rate = 0.0565 (at node 47)
Minimum accepted packet rate = 0.0345 (at node 63)
Average accepted packet rate = 0.045
Maximum accepted packet rate = 0.057 (at node 61)
Minimum injected flit rate = 0.069 (at node 63)
Average injected flit rate = 0.0896172
Maximum injected flit rate = 0.113 (at node 47)
Minimum accepted flit rate = 0.069 (at node 63)
Average accepted flit rate = 0.09
Maximum accepted flit rate = 0.114 (at node 61)
Average injected packet length = 2.00017
Average accepted packet length = 2
Total in-flight flits = 286 (286 measured)
Class 1:
Minimum packet latency = 8
Average packet latency = 36.4446
Maximum packet latency = 241
Minimum network latency = 8
Average network latency = 36.4108
Maximum network latency = 241
Slowest packet = 15375
Minimum flit latency = 7
Average flit latency = 35.6974
Maximum flit latency = 240
Slowest flit = 30750
Minimum fragmentation = 0
Average fragmentation = 0
Maximum fragmentation = 0
Minimum injected packet rate = 0.0145 (at node 22)
Average injected packet rate = 0.0249219
Maximum injected packet rate = 0.0335 (at node 6)
Minimum accepted packet rate = 0.0145 (at node 50)
Average accepted packet rate = 0.0250078
Maximum accepted packet rate = 0.034 (at node 30)
Minimum injected flit rate = 0.029 (at node 22)
Average injected flit rate = 0.0498359
Maximum injected flit rate = 0.067 (at node 6)
Minimum accepted flit rate = 0.029 (at node 50)
Average accepted flit rate = 0.0500156
Maximum accepted flit rate = 0.068 (at node 30)
Average injected packet length = 1.99969
Average accepted packet length = 2
Total in-flight flits = 100 (100 measured)
latency change    = 0.0627581
throughput change = 0.000347222
latency change    = 0.0169553
throughput change = 0.00937207
1
Class 0:
Minimum packet latency = 8
Average packet latency = 56.2309
Maximum packet latency = 657
Minimum network latency = 8
Average network latency = 56.0225
Maximum network latency = 657
Slowest packet = 15833
Minimum flit latency = 5
Average flit latency = 57.2358
Maximum flit latency = 656
Slowest flit = 31666
Minimum fragmentation = 0
Average fragmentation = 1.18697
Maximum fragmentation = 68
Minimum injected packet rate = 0.038 (at node 26)
Average injected packet rate = 0.0453177
Maximum injected packet rate = 0.052 (at node 35)
Minimum accepted packet rate = 0.0373333 (at node 7)
Average accepted packet rate = 0.0453385
Maximum accepted packet rate = 0.0536667 (at node 56)
Minimum injected flit rate = 0.076 (at node 26)
Average injected flit rate = 0.090625
Maximum injected flit rate = 0.104 (at node 35)
Minimum accepted flit rate = 0.075 (at node 7)
Average accepted flit rate = 0.090724
Maximum accepted flit rate = 0.107667 (at node 56)
Average injected packet length = 1.99977
Average accepted packet length = 2.00103
Total in-flight flits = 317 (317 measured)
Class 1:
Minimum packet latency = 8
Average packet latency = 36.3276
Maximum packet latency = 241
Minimum network latency = 8
Average network latency = 36.298
Maximum network latency = 241
Slowest packet = 15375
Minimum flit latency = 7
Average flit latency = 35.4909
Maximum flit latency = 240
Slowest flit = 30750
Minimum fragmentation = 0
Average fragmentation = 0
Maximum fragmentation = 0
Minimum injected packet rate = 0.019 (at node 22)
Average injected packet rate = 0.025
Maximum injected packet rate = 0.033 (at node 6)
Minimum accepted packet rate = 0.019 (at node 50)
Average accepted packet rate = 0.0249583
Maximum accepted packet rate = 0.0333333 (at node 48)
Minimum injected flit rate = 0.038 (at node 22)
Average injected flit rate = 0.0499948
Maximum injected flit rate = 0.066 (at node 6)
Minimum accepted flit rate = 0.038 (at node 50)
Average accepted flit rate = 0.0499167
Maximum accepted flit rate = 0.0666667 (at node 48)
Average injected packet length = 1.99979
Average accepted packet length = 2
Total in-flight flits = 138 (138 measured)
latency change    = 0.0249311
throughput change = 0.00797979
latency change    = 0.00321958
throughput change = 0.00198247
1
Class 0:
Minimum packet latency = 8
Average packet latency = 55.1662
Maximum packet latency = 657
Minimum network latency = 8
Average network latency = 54.9774
Maximum network latency = 657
Slowest packet = 15833
Minimum flit latency = 5
Average flit latency = 55.4736
Maximum flit latency = 656
Slowest flit = 31666
Minimum fragmentation = 0
Average fragmentation = 1.18356
Maximum fragmentation = 74
Minimum injected packet rate = 0.0385 (at node 32)
Average injected packet rate = 0.0453594
Maximum injected packet rate = 0.05075 (at node 19)
Minimum accepted packet rate = 0.03825 (at node 4)
Average accepted packet rate = 0.0453906
Maximum accepted packet rate = 0.05125 (at node 11)
Minimum injected flit rate = 0.077 (at node 32)
Average injected flit rate = 0.0907188
Maximum injected flit rate = 0.1015 (at node 19)
Minimum accepted flit rate = 0.0765 (at node 4)
Average accepted flit rate = 0.0907773
Maximum accepted flit rate = 0.1025 (at node 56)
Average injected packet length = 2
Average accepted packet length = 1.99991
Total in-flight flits = 319 (319 measured)
Class 1:
Minimum packet latency = 8
Average packet latency = 36.5218
Maximum packet latency = 241
Minimum network latency = 8
Average network latency = 36.4917
Maximum network latency = 241
Slowest packet = 15375
Minimum flit latency = 7
Average flit latency = 35.6352
Maximum flit latency = 240
Slowest flit = 30750
Minimum fragmentation = 0
Average fragmentation = 0
Maximum fragmentation = 0
Minimum injected packet rate = 0.01875 (at node 22)
Average injected packet rate = 0.0248594
Maximum injected packet rate = 0.033 (at node 6)
Minimum accepted packet rate = 0.01875 (at node 50)
Average accepted packet rate = 0.0248438
Maximum accepted packet rate = 0.03175 (at node 48)
Minimum injected flit rate = 0.0375 (at node 22)
Average injected flit rate = 0.049707
Maximum injected flit rate = 0.06575 (at node 6)
Minimum accepted flit rate = 0.0375 (at node 50)
Average accepted flit rate = 0.0496914
Maximum accepted flit rate = 0.0635 (at node 48)
Average injected packet length = 1.99953
Average accepted packet length = 2.00016
Total in-flight flits = 129 (129 measured)
latency change    = 0.0193002
throughput change = 0.000588092
latency change    = 0.00531744
throughput change = 0.00453319
1
Class 0:
Minimum packet latency = 8
Average packet latency = 55.1588
Maximum packet latency = 657
Minimum network latency = 8
Average network latency = 54.98
Maximum network latency = 657
Slowest packet = 15833
Minimum flit latency = 5
Average flit latency = 55.0576
Maximum flit latency = 656
Slowest flit = 31666
Minimum fragmentation = 0
Average fragmentation = 1.17361
Maximum fragmentation = 74
Minimum injected packet rate = 0.039 (at node 11)
Average injected packet rate = 0.0453594
Maximum injected packet rate = 0.0524 (at node 25)
Minimum accepted packet rate = 0.039 (at node 25)
Average accepted packet rate = 0.0453656
Maximum accepted packet rate = 0.053 (at node 11)
Minimum injected flit rate = 0.078 (at node 11)
Average injected flit rate = 0.0907188
Maximum injected flit rate = 0.1048 (at node 25)
Minimum accepted flit rate = 0.078 (at node 25)
Average accepted flit rate = 0.0907312
Maximum accepted flit rate = 0.1058 (at node 11)
Average injected packet length = 2
Average accepted packet length = 2
Total in-flight flits = 330 (330 measured)
Class 1:
Minimum packet latency = 8
Average packet latency = 36.7578
Maximum packet latency = 241
Minimum network latency = 8
Average network latency = 36.7285
Maximum network latency = 241
Slowest packet = 15375
Minimum flit latency = 7
Average flit latency = 35.8434
Maximum flit latency = 240
Slowest flit = 30750
Minimum fragmentation = 0
Average fragmentation = 0
Maximum fragmentation = 0
Minimum injected packet rate = 0.0206 (at node 44)
Average injected packet rate = 0.0248594
Maximum injected packet rate = 0.0322 (at node 6)
Minimum accepted packet rate = 0.0204 (at node 37)
Average accepted packet rate = 0.0248438
Maximum accepted packet rate = 0.0322 (at node 48)
Minimum injected flit rate = 0.0412 (at node 44)
Average injected flit rate = 0.0497187
Maximum injected flit rate = 0.0644 (at node 6)
Minimum accepted flit rate = 0.0408 (at node 37)
Average accepted flit rate = 0.0496906
Maximum accepted flit rate = 0.0644 (at node 48)
Average injected packet length = 2
Average accepted packet length = 2.00013
Total in-flight flits = 131 (131 measured)
latency change    = 0.000134495
throughput change = 0.000508025
latency change    = 0.00641865
throughput change = 1.57223e-05
Draining all recorded packets ...
Draining remaining packets ...
Time taken is 8522 cycles
====== Traffic class 0 ======
Overall minimum packet latency = 8 (1 samples)
Overall average packet latency = 56.0535 (1 samples)
Overall maximum packet latency = 657 (1 samples)
Overall minimum network latency = 8 (1 samples)
Overall average network latency = 55.8756 (1 samples)
Overall maximum network latency = 657 (1 samples)
Overall minimum flit latency = 5 (1 samples)
Overall average flit latency = 55.6352 (1 samples)
Overall maximum flit latency = 656 (1 samples)
Overall minimum fragmentation = 0 (1 samples)
Overall average fragmentation = 1.19091 (1 samples)
Overall maximum fragmentation = 74 (1 samples)
Overall minimum injected packet rate = 0.039 (1 samples)
Overall average injected packet rate = 0.0453594 (1 samples)
Overall maximum injected packet rate = 0.0524 (1 samples)
Overall minimum accepted packet rate = 0.039 (1 samples)
Overall average accepted packet rate = 0.0453656 (1 samples)
Overall maximum accepted packet rate = 0.053 (1 samples)
Overall minimum injected flit rate = 0.078 (1 samples)
Overall average injected flit rate = 0.0907188 (1 samples)
Overall maximum injected flit rate = 0.1048 (1 samples)
Overall minimum accepted flit rate = 0.078 (1 samples)
Overall average accepted flit rate = 0.0907312 (1 samples)
Overall maximum accepted flit rate = 0.1058 (1 samples)
Overall average injected packet size = 2 (1 samples)
Overall average accepted packet size = 2 (1 samples)
Overall average hops = 6.21061 (1 samples)
====== Traffic class 1 ======
Overall minimum packet latency = 8 (1 samples)
Overall average packet latency = 36.8649 (1 samples)
Overall maximum packet latency = 241 (1 samples)
Overall minimum network latency = 8 (1 samples)
Overall average network latency = 36.8357 (1 samples)
Overall maximum network latency = 241 (1 samples)
Overall minimum flit latency = 7 (1 samples)
Overall average flit latency = 35.9055 (1 samples)
Overall maximum flit latency = 240 (1 samples)
Overall minimum fragmentation = 0 (1 samples)
Overall average fragmentation = 0 (1 samples)
Overall maximum fragmentation = 0 (1 samples)
Overall minimum injected packet rate = 0.0206 (1 samples)
Overall average injected packet rate = 0.0248594 (1 samples)
Overall maximum injected packet rate = 0.0322 (1 samples)
Overall minimum accepted packet rate = 0.0204 (1 samples)
Overall average accepted packet rate = 0.0248438 (1 samples)
Overall maximum accepted packet rate = 0.0322 (1 samples)
Overall minimum injected flit rate = 0.0412 (1 samples)
Overall average injected flit rate = 0.0497187 (1 samples)
Overall maximum injected flit rate = 0.0644 (1 samples)
Overall minimum accepted flit rate = 0.0408 (1 samples)
Overall average accepted flit rate = 0.0496906 (1 samples)
Overall maximum accepted flit rate = 0.0644 (1 samples)
Overall average injected packet size = 2 (1 samples)
Overall average accepted packet size = 2.00013 (1 samples)
Overall average hops = 6.25607 (1 samples)
Total run time 5.47789
