BEGIN Configuration File: ./examples/project_inputs/config-iqevc_tp-uniform_c1ir-0.05_c0ir-0.09_prio-select
//
// EVC Router Config File -         
//
// Jason Deng, Mike Wang        
//        

//
// Flow control
//

num_vcs     = 5;
vc_buf_size = 6;

wait_for_tail_credit = 0;

vc_allocator = select;
sw_allocator = select;
alloc_iters  = 2;

credit_delay   = 2;
routing_delay  = 1;
vc_alloc_delay = 1;
sw_alloc_delay = 1;
st_final_delay = 1;

input_speedup     = 1;
output_speedup    = 1;
internal_speedup  = 1.0;

//
// Traffic
//

sim_type = latency;

warmup_periods = 3;
sample_period  = 1000;
sim_count = 1;

//
//topoogy
//

topology = mesh;
k  = 8;
n  = 2;

//
// Routing
//

router = iqevc;
routing_function = dor;

packet_size = 2;
use_read_write = 0;

traffic  = uniform;
injection_rate = {0.09,0.05};
injection_rate_uses_flits = 1;

classes = 2;
class_priority = {0,1};
priority = class;

noq = 0;
hold_switch_for_packet = 0;
vc_prioritize_empty = 0;

//
// express virtual channel settings
//

evc = 1;
num_evcs = 1;
evc_prioritized_class = 1;
selective_vc_request = 1;
hold_switch_for_evc_packet = 1;
evc_next_route = 0;

END Configuration File: ./examples/project_inputs/config-iqevc_tp-uniform_c1ir-0.05_c0ir-0.09_prio-select
0
Class 0:
Minimum packet latency = 8
Average packet latency = 35.6239
Maximum packet latency = 78
Minimum network latency = 8
Average network latency = 35.4615
Maximum network latency = 78
Slowest packet = 156
Minimum flit latency = 7
Average flit latency = 34.2025
Maximum flit latency = 77
Slowest flit = 7940
Minimum fragmentation = 0
Average fragmentation = 0.467269
Maximum fragmentation = 10
Minimum injected packet rate = 0.03 (at node 6)
Average injected packet rate = 0.0445625
Maximum injected packet rate = 0.059 (at node 32)
Minimum accepted packet rate = 0.03 (at node 52)
Average accepted packet rate = 0.0432031
Maximum accepted packet rate = 0.055 (at node 14)
Minimum injected flit rate = 0.06 (at node 6)
Average injected flit rate = 0.0890781
Maximum injected flit rate = 0.118 (at node 32)
Minimum accepted flit rate = 0.06 (at node 52)
Average accepted flit rate = 0.0864375
Maximum accepted flit rate = 0.11 (at node 14)
Average injected packet length = 1.99895
Average accepted packet length = 2.00072
Total in-flight flits = 172 (0 measured)
Class 1:
Minimum packet latency = 8
Average packet latency = 35.2142
Maximum packet latency = 86
Minimum network latency = 8
Average network latency = 35.1903
Maximum network latency = 86
Slowest packet = 609
Minimum flit latency = 7
Average flit latency = 34.1943
Maximum flit latency = 85
Slowest flit = 1218
Minimum fragmentation = 0
Average fragmentation = 0
Maximum fragmentation = 0
Minimum injected packet rate = 0.015 (at node 41)
Average injected packet rate = 0.0256406
Maximum injected packet rate = 0.038 (at node 16)
Minimum accepted packet rate = 0.015 (at node 41)
Average accepted packet rate = 0.0247969
Maximum accepted packet rate = 0.035 (at node 22)
Minimum injected flit rate = 0.03 (at node 41)
Average injected flit rate = 0.0512656
Maximum injected flit rate = 0.076 (at node 16)
Minimum accepted flit rate = 0.03 (at node 41)
Average accepted flit rate = 0.0496094
Maximum accepted flit rate = 0.07 (at node 22)
Average injected packet length = 1.99939
Average accepted packet length = 2.00063
Total in-flight flits = 107 (0 measured)
latency change    = 1
throughput change = 1
latency change    = 1
throughput change = 1
0
Class 0:
Minimum packet latency = 8
Average packet latency = 35.7097
Maximum packet latency = 81
Minimum network latency = 8
Average network latency = 35.5556
Maximum network latency = 81
Slowest packet = 4129
Minimum flit latency = 7
Average flit latency = 34.2958
Maximum flit latency = 80
Slowest flit = 8258
Minimum fragmentation = 0
Average fragmentation = 0.466012
Maximum fragmentation = 10
Minimum injected packet rate = 0.035 (at node 12)
Average injected packet rate = 0.0445625
Maximum injected packet rate = 0.0585 (at node 3)
Minimum accepted packet rate = 0.0355 (at node 46)
Average accepted packet rate = 0.0437891
Maximum accepted packet rate = 0.056 (at node 14)
Minimum injected flit rate = 0.07 (at node 12)
Average injected flit rate = 0.0890859
Maximum injected flit rate = 0.117 (at node 3)
Minimum accepted flit rate = 0.071 (at node 46)
Average accepted flit rate = 0.0875859
Maximum accepted flit rate = 0.112 (at node 14)
Average injected packet length = 1.99912
Average accepted packet length = 2.00018
Total in-flight flits = 199 (0 measured)
Class 1:
Minimum packet latency = 8
Average packet latency = 35.4468
Maximum packet latency = 86
Minimum network latency = 8
Average network latency = 35.4208
Maximum network latency = 86
Slowest packet = 609
Minimum flit latency = 7
Average flit latency = 34.4197
Maximum flit latency = 85
Slowest flit = 1218
Minimum fragmentation = 0
Average fragmentation = 0
Maximum fragmentation = 0
Minimum injected packet rate = 0.0165 (at node 11)
Average injected packet rate = 0.0253984
Maximum injected packet rate = 0.0345 (at node 2)
Minimum accepted packet rate = 0.0165 (at node 18)
Average accepted packet rate = 0.0249688
Maximum accepted packet rate = 0.031 (at node 40)
Minimum injected flit rate = 0.033 (at node 11)
Average injected flit rate = 0.0507891
Maximum injected flit rate = 0.069 (at node 2)
Minimum accepted flit rate = 0.033 (at node 18)
Average accepted flit rate = 0.0499453
Maximum accepted flit rate = 0.062 (at node 40)
Average injected packet length = 1.99969
Average accepted packet length = 2.00031
Total in-flight flits = 109 (0 measured)
latency change    = 0.00240421
throughput change = 0.0131121
latency change    = 0.00656104
throughput change = 0.00672611
0
Class 0:
Minimum packet latency = 8
Average packet latency = 35.6313
Maximum packet latency = 80
Minimum network latency = 8
Average network latency = 35.4895
Maximum network latency = 80
Slowest packet = 10429
Minimum flit latency = 7
Average flit latency = 34.235
Maximum flit latency = 78
Slowest flit = 18277
Minimum fragmentation = 0
Average fragmentation = 0.461728
Maximum fragmentation = 15
Minimum injected packet rate = 0.028 (at node 62)
Average injected packet rate = 0.0445313
Maximum injected packet rate = 0.058 (at node 4)
Minimum accepted packet rate = 0.034 (at node 22)
Average accepted packet rate = 0.0445
Maximum accepted packet rate = 0.055 (at node 10)
Minimum injected flit rate = 0.056 (at node 62)
Average injected flit rate = 0.0891094
Maximum injected flit rate = 0.116 (at node 4)
Minimum accepted flit rate = 0.068 (at node 22)
Average accepted flit rate = 0.0890156
Maximum accepted flit rate = 0.11 (at node 10)
Average injected packet length = 2.00105
Average accepted packet length = 2.00035
Total in-flight flits = 200 (0 measured)
Class 1:
Minimum packet latency = 8
Average packet latency = 35.4332
Maximum packet latency = 81
Minimum network latency = 8
Average network latency = 35.4063
Maximum network latency = 81
Slowest packet = 9946
Minimum flit latency = 7
Average flit latency = 34.4194
Maximum flit latency = 80
Slowest flit = 19892
Minimum fragmentation = 0
Average fragmentation = 0
Maximum fragmentation = 0
Minimum injected packet rate = 0.014 (at node 46)
Average injected packet rate = 0.0249375
Maximum injected packet rate = 0.034 (at node 21)
Minimum accepted packet rate = 0.015 (at node 11)
Average accepted packet rate = 0.0249219
Maximum accepted packet rate = 0.038 (at node 54)
Minimum injected flit rate = 0.028 (at node 46)
Average injected flit rate = 0.0498906
Maximum injected flit rate = 0.068 (at node 21)
Minimum accepted flit rate = 0.03 (at node 11)
Average accepted flit rate = 0.0498437
Maximum accepted flit rate = 0.076 (at node 54)
Average injected packet length = 2.00063
Average accepted packet length = 2
Total in-flight flits = 111 (0 measured)
latency change    = 0.0022004
throughput change = 0.0160611
latency change    = 0.000383247
throughput change = 0.00203762
Warmed up ...Time used is 3000 cycles
1
Class 0:
Minimum packet latency = 8
Average packet latency = 35.3951
Maximum packet latency = 83
Minimum network latency = 8
Average network latency = 35.2449
Maximum network latency = 82
Slowest packet = 14490
Minimum flit latency = 7
Average flit latency = 34.2175
Maximum flit latency = 81
Slowest flit = 28981
Minimum fragmentation = 0
Average fragmentation = 0.445007
Maximum fragmentation = 12
Minimum injected packet rate = 0.028 (at node 63)
Average injected packet rate = 0.0449531
Maximum injected packet rate = 0.062 (at node 58)
Minimum accepted packet rate = 0.031 (at node 35)
Average accepted packet rate = 0.0447656
Maximum accepted packet rate = 0.06 (at node 29)
Minimum injected flit rate = 0.055 (at node 63)
Average injected flit rate = 0.0898594
Maximum injected flit rate = 0.124 (at node 58)
Minimum accepted flit rate = 0.062 (at node 35)
Average accepted flit rate = 0.0895937
Maximum accepted flit rate = 0.121 (at node 29)
Average injected packet length = 1.99896
Average accepted packet length = 2.0014
Total in-flight flits = 220 (220 measured)
Class 1:
Minimum packet latency = 8
Average packet latency = 35.2554
Maximum packet latency = 85
Minimum network latency = 8
Average network latency = 35.2207
Maximum network latency = 84
Slowest packet = 15934
Minimum flit latency = 7
Average flit latency = 34.3803
Maximum flit latency = 83
Slowest flit = 31868
Minimum fragmentation = 0
Average fragmentation = 0
Maximum fragmentation = 0
Minimum injected packet rate = 0.014 (at node 57)
Average injected packet rate = 0.0249219
Maximum injected packet rate = 0.036 (at node 49)
Minimum accepted packet rate = 0.013 (at node 41)
Average accepted packet rate = 0.0247344
Maximum accepted packet rate = 0.033 (at node 10)
Minimum injected flit rate = 0.028 (at node 57)
Average injected flit rate = 0.0498125
Maximum injected flit rate = 0.072 (at node 49)
Minimum accepted flit rate = 0.026 (at node 41)
Average accepted flit rate = 0.0494687
Maximum accepted flit rate = 0.066 (at node 10)
Average injected packet length = 1.99875
Average accepted packet length = 2
Total in-flight flits = 135 (135 measured)
latency change    = 0.00667439
throughput change = 0.00645274
latency change    = 0.00504394
throughput change = 0.00758054
1
Class 0:
Minimum packet latency = 8
Average packet latency = 35.4059
Maximum packet latency = 83
Minimum network latency = 8
Average network latency = 35.2574
Maximum network latency = 82
Slowest packet = 14490
Minimum flit latency = 7
Average flit latency = 34.1203
Maximum flit latency = 81
Slowest flit = 28981
Minimum fragmentation = 0
Average fragmentation = 0.434397
Maximum fragmentation = 12
Minimum injected packet rate = 0.0335 (at node 63)
Average injected packet rate = 0.0447813
Maximum injected packet rate = 0.0555 (at node 47)
Minimum accepted packet rate = 0.034 (at node 16)
Average accepted packet rate = 0.0448516
Maximum accepted packet rate = 0.0555 (at node 10)
Minimum injected flit rate = 0.067 (at node 63)
Average injected flit rate = 0.0895703
Maximum injected flit rate = 0.111 (at node 47)
Minimum accepted flit rate = 0.068 (at node 16)
Average accepted flit rate = 0.0896953
Maximum accepted flit rate = 0.111 (at node 10)
Average injected packet length = 2.00017
Average accepted packet length = 1.99983
Total in-flight flits = 185 (185 measured)
Class 1:
Minimum packet latency = 8
Average packet latency = 35.3583
Maximum packet latency = 85
Minimum network latency = 8
Average network latency = 35.3285
Maximum network latency = 84
Slowest packet = 15934
Minimum flit latency = 7
Average flit latency = 34.4058
Maximum flit latency = 83
Slowest flit = 31868
Minimum fragmentation = 0
Average fragmentation = 0
Maximum fragmentation = 0
Minimum injected packet rate = 0.014 (at node 22)
Average injected packet rate = 0.0250156
Maximum injected packet rate = 0.035 (at node 6)
Minimum accepted packet rate = 0.018 (at node 42)
Average accepted packet rate = 0.0250547
Maximum accepted packet rate = 0.032 (at node 29)
Minimum injected flit rate = 0.028 (at node 22)
Average injected flit rate = 0.0500234
Maximum injected flit rate = 0.07 (at node 6)
Minimum accepted flit rate = 0.036 (at node 42)
Average accepted flit rate = 0.0501172
Maximum accepted flit rate = 0.064 (at node 29)
Average injected packet length = 1.99969
Average accepted packet length = 2.00031
Total in-flight flits = 100 (100 measured)
latency change    = 0.000304229
throughput change = 0.00113231
latency change    = 0.0029101
throughput change = 0.0129384
1
Class 0:
Minimum packet latency = 8
Average packet latency = 35.485
Maximum packet latency = 85
Minimum network latency = 8
Average network latency = 35.3402
Maximum network latency = 85
Slowest packet = 23653
Minimum flit latency = 7
Average flit latency = 34.1681
Maximum flit latency = 84
Slowest flit = 47306
Minimum fragmentation = 0
Average fragmentation = 0.432829
Maximum fragmentation = 12
Minimum injected packet rate = 0.0383333 (at node 26)
Average injected packet rate = 0.0453021
Maximum injected packet rate = 0.052 (at node 43)
Minimum accepted packet rate = 0.037 (at node 15)
Average accepted packet rate = 0.0452656
Maximum accepted packet rate = 0.0546667 (at node 10)
Minimum injected flit rate = 0.0766667 (at node 26)
Average injected flit rate = 0.0905938
Maximum injected flit rate = 0.104 (at node 43)
Minimum accepted flit rate = 0.0743333 (at node 15)
Average accepted flit rate = 0.0905312
Maximum accepted flit rate = 0.109333 (at node 10)
Average injected packet length = 1.99977
Average accepted packet length = 2
Total in-flight flits = 214 (214 measured)
Class 1:
Minimum packet latency = 8
Average packet latency = 35.2046
Maximum packet latency = 87
Minimum network latency = 8
Average network latency = 35.1772
Maximum network latency = 87
Slowest packet = 24839
Minimum flit latency = 7
Average flit latency = 34.2311
Maximum flit latency = 86
Slowest flit = 49678
Minimum fragmentation = 0
Average fragmentation = 0
Maximum fragmentation = 0
Minimum injected packet rate = 0.0186667 (at node 22)
Average injected packet rate = 0.0250625
Maximum injected packet rate = 0.034 (at node 6)
Minimum accepted packet rate = 0.0193333 (at node 9)
Average accepted packet rate = 0.0249844
Maximum accepted packet rate = 0.0303333 (at node 6)
Minimum injected flit rate = 0.0373333 (at node 22)
Average injected flit rate = 0.0501198
Maximum injected flit rate = 0.068 (at node 6)
Minimum accepted flit rate = 0.0386667 (at node 9)
Average accepted flit rate = 0.0499792
Maximum accepted flit rate = 0.0606667 (at node 6)
Average injected packet length = 1.99979
Average accepted packet length = 2.00042
Total in-flight flits = 139 (139 measured)
latency change    = 0.00223
throughput change = 0.00923369
latency change    = 0.00436593
throughput change = 0.00276157
Draining all recorded packets ...
Draining remaining packets ...
Time taken is 6143 cycles
====== Traffic class 0 ======
Overall minimum packet latency = 8 (1 samples)
Overall average packet latency = 35.5482 (1 samples)
Overall maximum packet latency = 85 (1 samples)
Overall minimum network latency = 8 (1 samples)
Overall average network latency = 35.4032 (1 samples)
Overall maximum network latency = 85 (1 samples)
Overall minimum flit latency = 7 (1 samples)
Overall average flit latency = 34.202 (1 samples)
Overall maximum flit latency = 84 (1 samples)
Overall minimum fragmentation = 0 (1 samples)
Overall average fragmentation = 0.433433 (1 samples)
Overall maximum fragmentation = 12 (1 samples)
Overall minimum injected packet rate = 0.0383333 (1 samples)
Overall average injected packet rate = 0.0453021 (1 samples)
Overall maximum injected packet rate = 0.052 (1 samples)
Overall minimum accepted packet rate = 0.037 (1 samples)
Overall average accepted packet rate = 0.0452656 (1 samples)
Overall maximum accepted packet rate = 0.0546667 (1 samples)
Overall minimum injected flit rate = 0.0766667 (1 samples)
Overall average injected flit rate = 0.0905938 (1 samples)
Overall maximum injected flit rate = 0.104 (1 samples)
Overall minimum accepted flit rate = 0.0743333 (1 samples)
Overall average accepted flit rate = 0.0905312 (1 samples)
Overall maximum accepted flit rate = 0.109333 (1 samples)
Overall average injected packet size = 1.99977 (1 samples)
Overall average accepted packet size = 2 (1 samples)
Overall average hops = 6.24017 (1 samples)
====== Traffic class 1 ======
Overall minimum packet latency = 8 (1 samples)
Overall average packet latency = 35.3071 (1 samples)
Overall maximum packet latency = 87 (1 samples)
Overall minimum network latency = 8 (1 samples)
Overall average network latency = 35.2791 (1 samples)
Overall maximum network latency = 87 (1 samples)
Overall minimum flit latency = 7 (1 samples)
Overall average flit latency = 34.3566 (1 samples)
Overall maximum flit latency = 86 (1 samples)
Overall minimum fragmentation = 0 (1 samples)
Overall average fragmentation = 0 (1 samples)
Overall maximum fragmentation = 0 (1 samples)
Overall minimum injected packet rate = 0.0186667 (1 samples)
Overall average injected packet rate = 0.0250625 (1 samples)
Overall maximum injected packet rate = 0.034 (1 samples)
Overall minimum accepted packet rate = 0.0193333 (1 samples)
Overall average accepted packet rate = 0.0249844 (1 samples)
Overall maximum accepted packet rate = 0.0303333 (1 samples)
Overall minimum injected flit rate = 0.0373333 (1 samples)
Overall average injected flit rate = 0.0501198 (1 samples)
Overall maximum injected flit rate = 0.068 (1 samples)
Overall minimum accepted flit rate = 0.0386667 (1 samples)
Overall average accepted flit rate = 0.0499792 (1 samples)
Overall maximum accepted flit rate = 0.0606667 (1 samples)
Overall average injected packet size = 1.99979 (1 samples)
Overall average accepted packet size = 2.00042 (1 samples)
Overall average hops = 6.22756 (1 samples)
Total run time 3.82882
