BEGIN Configuration File: ./examples/project_inputs/config-iqevc_tp-bitcomp_c1ir-0.05_c0ir-0.29_prio-select
//
// EVC Router Config File -         
//
// Jason Deng, Mike Wang        
//        

//
// Flow control
//

num_vcs     = 5;
vc_buf_size = 6;

wait_for_tail_credit = 0;

vc_allocator = select;
sw_allocator = select;
alloc_iters  = 2;

credit_delay   = 2;
routing_delay  = 1;
vc_alloc_delay = 1;
sw_alloc_delay = 1;
st_final_delay = 1;

input_speedup     = 1;
output_speedup    = 1;
internal_speedup  = 1.0;

//
// Traffic
//

sim_type = latency;

warmup_periods = 3;
sample_period  = 1000;
sim_count = 1;

//
//topoogy
//

topology = mesh;
k  = 8;
n  = 2;

//
// Routing
//

router = iqevc;
routing_function = dor;

packet_size = 2;
use_read_write = 0;

traffic  = bitcomp;
injection_rate = {0.29,0.05};
injection_rate_uses_flits = 1;

classes = 2;
class_priority = {0,1};
priority = class;

noq = 0;
hold_switch_for_packet = 0;
vc_prioritize_empty = 0;

//
// express virtual channel settings
//

evc = 1;
num_evcs = 1;
evc_prioritized_class = 1;
selective_vc_request = 1;
hold_switch_for_evc_packet = 1;
evc_next_route = 0;

END Configuration File: ./examples/project_inputs/config-iqevc_tp-bitcomp_c1ir-0.05_c0ir-0.29_prio-select
0
Class 0:
Minimum packet latency = 18
Average packet latency = 194.299
Maximum packet latency = 839
Minimum network latency = 18
Average network latency = 189.464
Maximum network latency = 839
Slowest packet = 1585
Minimum flit latency = 17
Average flit latency = 187.63
Maximum flit latency = 838
Slowest flit = 3170
Minimum fragmentation = 0
Average fragmentation = 1.61158
Maximum fragmentation = 58
Minimum injected packet rate = 0.036 (at node 9)
Average injected packet rate = 0.0830313
Maximum injected packet rate = 0.157 (at node 36)
Minimum accepted packet rate = 0.016 (at node 54)
Average accepted packet rate = 0.0590938
Maximum accepted packet rate = 0.146 (at node 36)
Minimum injected flit rate = 0.072 (at node 9)
Average injected flit rate = 0.165953
Maximum injected flit rate = 0.314 (at node 36)
Minimum accepted flit rate = 0.032 (at node 54)
Average accepted flit rate = 0.118375
Maximum accepted flit rate = 0.294 (at node 36)
Average injected packet length = 1.99868
Average accepted packet length = 2.00317
Total in-flight flits = 3152 (0 measured)
Class 1:
Minimum packet latency = 18
Average packet latency = 119.86
Maximum packet latency = 691
Minimum network latency = 18
Average network latency = 109.626
Maximum network latency = 691
Slowest packet = 3143
Minimum flit latency = 17
Average flit latency = 108.149
Maximum flit latency = 690
Slowest flit = 6286
Minimum fragmentation = 0
Average fragmentation = 0
Maximum fragmentation = 0
Minimum injected packet rate = 0.009 (at node 14)
Average injected packet rate = 0.02325
Maximum injected packet rate = 0.035 (at node 4)
Minimum accepted packet rate = 0.004 (at node 55)
Average accepted packet rate = 0.0183125
Maximum accepted packet rate = 0.032 (at node 59)
Minimum injected flit rate = 0.018 (at node 14)
Average injected flit rate = 0.0464375
Maximum injected flit rate = 0.07 (at node 4)
Minimum accepted flit rate = 0.008 (at node 55)
Average accepted flit rate = 0.0366563
Maximum accepted flit rate = 0.064 (at node 59)
Average injected packet length = 1.99731
Average accepted packet length = 2.00171
Total in-flight flits = 674 (0 measured)
latency change    = 1
throughput change = 1
latency change    = 1
throughput change = 1
0
Class 0:
Minimum packet latency = 18
Average packet latency = 377.526
Maximum packet latency = 1763
Minimum network latency = 18
Average network latency = 298.444
Maximum network latency = 1763
Slowest packet = 2358
Minimum flit latency = 17
Average flit latency = 296.28
Maximum flit latency = 1762
Slowest flit = 4717
Minimum fragmentation = 0
Average fragmentation = 1.7247
Maximum fragmentation = 58
Minimum injected packet rate = 0.02 (at node 14)
Average injected packet rate = 0.0643359
Maximum injected packet rate = 0.153 (at node 27)
Minimum accepted packet rate = 0.0125 (at node 54)
Average accepted packet rate = 0.051875
Maximum accepted packet rate = 0.148 (at node 27)
Minimum injected flit rate = 0.04 (at node 14)
Average injected flit rate = 0.128602
Maximum injected flit rate = 0.306 (at node 27)
Minimum accepted flit rate = 0.025 (at node 54)
Average accepted flit rate = 0.103789
Maximum accepted flit rate = 0.296 (at node 27)
Average injected packet length = 1.99891
Average accepted packet length = 2.00075
Total in-flight flits = 3287 (0 measured)
Class 1:
Minimum packet latency = 18
Average packet latency = 214.446
Maximum packet latency = 1668
Minimum network latency = 18
Average network latency = 157.534
Maximum network latency = 1558
Slowest packet = 3223
Minimum flit latency = 17
Average flit latency = 155.833
Maximum flit latency = 1557
Slowest flit = 6446
Minimum fragmentation = 0
Average fragmentation = 0
Maximum fragmentation = 0
Minimum injected packet rate = 0.017 (at node 40)
Average injected packet rate = 0.0246797
Maximum injected packet rate = 0.0325 (at node 46)
Minimum accepted packet rate = 0.008 (at node 15)
Average accepted packet rate = 0.0219844
Maximum accepted packet rate = 0.0305 (at node 17)
Minimum injected flit rate = 0.034 (at node 40)
Average injected flit rate = 0.0493203
Maximum injected flit rate = 0.065 (at node 46)
Minimum accepted flit rate = 0.016 (at node 15)
Average accepted flit rate = 0.0439688
Maximum accepted flit rate = 0.061 (at node 17)
Average injected packet length = 1.99842
Average accepted packet length = 2
Total in-flight flits = 738 (0 measured)
latency change    = 0.485335
throughput change = 0.140534
latency change    = 0.441071
throughput change = 0.166311
Average latency for class 0 exceeded 500 cycles. Aborting simulation.
Too many sample periods needed to converge
Simulation unstable, ending ...
Total run time 2.18028
