BEGIN Configuration File: ./examples/project_inputs/config-iqevc_tp-uniform_c1ir-0.05_c0ir-0.25_prio-select
//
// EVC Router Config File -         
//
// Jason Deng, Mike Wang        
//        

//
// Flow control
//

num_vcs     = 5;
vc_buf_size = 6;

wait_for_tail_credit = 0;

vc_allocator = select;
sw_allocator = select;
alloc_iters  = 2;

credit_delay   = 2;
routing_delay  = 1;
vc_alloc_delay = 1;
sw_alloc_delay = 1;
st_final_delay = 1;

input_speedup     = 1;
output_speedup    = 1;
internal_speedup  = 1.0;

//
// Traffic
//

sim_type = latency;

warmup_periods = 3;
sample_period  = 1000;
sim_count = 1;

//
//topoogy
//

topology = mesh;
k  = 8;
n  = 2;

//
// Routing
//

router = iqevc;
routing_function = dor;

packet_size = 2;
use_read_write = 0;

traffic  = uniform;
injection_rate = {0.25,0.05};
injection_rate_uses_flits = 1;

classes = 2;
class_priority = {0,1};
priority = class;

noq = 0;
hold_switch_for_packet = 0;
vc_prioritize_empty = 0;

//
// express virtual channel settings
//

evc = 1;
num_evcs = 1;
evc_prioritized_class = 1;
selective_vc_request = 1;
hold_switch_for_evc_packet = 1;
evc_next_route = 0;

END Configuration File: ./examples/project_inputs/config-iqevc_tp-uniform_c1ir-0.05_c0ir-0.25_prio-select
0
Class 0:
Minimum packet latency = 8
Average packet latency = 39.7861
Maximum packet latency = 135
Minimum network latency = 8
Average network latency = 39.4818
Maximum network latency = 135
Slowest packet = 3577
Minimum flit latency = 6
Average flit latency = 37.8073
Maximum flit latency = 134
Slowest flit = 7155
Minimum fragmentation = 0
Average fragmentation = 1.30091
Maximum fragmentation = 26
Minimum injected packet rate = 0.102 (at node 39)
Average injected packet rate = 0.124188
Maximum injected packet rate = 0.143 (at node 61)
Minimum accepted packet rate = 0.092 (at node 62)
Average accepted packet rate = 0.119016
Maximum accepted packet rate = 0.146 (at node 14)
Minimum injected flit rate = 0.204 (at node 39)
Average injected flit rate = 0.248172
Maximum injected flit rate = 0.285 (at node 61)
Minimum accepted flit rate = 0.184 (at node 62)
Average accepted flit rate = 0.2385
Maximum accepted flit rate = 0.293 (at node 14)
Average injected packet length = 1.99836
Average accepted packet length = 2.00394
Total in-flight flits = 632 (0 measured)
Class 1:
Minimum packet latency = 8
Average packet latency = 35.5121
Maximum packet latency = 84
Minimum network latency = 8
Average network latency = 35.4822
Maximum network latency = 84
Slowest packet = 6005
Minimum flit latency = 7
Average flit latency = 34.4839
Maximum flit latency = 83
Slowest flit = 12010
Minimum fragmentation = 0
Average fragmentation = 0
Maximum fragmentation = 0
Minimum injected packet rate = 0.018 (at node 46)
Average injected packet rate = 0.0254844
Maximum injected packet rate = 0.037 (at node 54)
Minimum accepted packet rate = 0.013 (at node 57)
Average accepted packet rate = 0.0245625
Maximum accepted packet rate = 0.039 (at node 37)
Minimum injected flit rate = 0.036 (at node 46)
Average injected flit rate = 0.0509375
Maximum injected flit rate = 0.074 (at node 54)
Minimum accepted flit rate = 0.026 (at node 57)
Average accepted flit rate = 0.0491406
Maximum accepted flit rate = 0.078 (at node 37)
Average injected packet length = 1.99877
Average accepted packet length = 2.00064
Total in-flight flits = 117 (0 measured)
latency change    = 1
throughput change = 1
latency change    = 1
throughput change = 1
0
Class 0:
Minimum packet latency = 8
Average packet latency = 39.9044
Maximum packet latency = 135
Minimum network latency = 8
Average network latency = 39.6032
Maximum network latency = 135
Slowest packet = 3577
Minimum flit latency = 6
Average flit latency = 37.9208
Maximum flit latency = 134
Slowest flit = 7155
Minimum fragmentation = 0
Average fragmentation = 1.30707
Maximum fragmentation = 26
Minimum injected packet rate = 0.107 (at node 60)
Average injected packet rate = 0.124328
Maximum injected packet rate = 0.1405 (at node 31)
Minimum accepted packet rate = 0.103 (at node 36)
Average accepted packet rate = 0.121586
Maximum accepted packet rate = 0.137 (at node 12)
Minimum injected flit rate = 0.214 (at node 60)
Average injected flit rate = 0.248586
Maximum injected flit rate = 0.281 (at node 31)
Minimum accepted flit rate = 0.206 (at node 36)
Average accepted flit rate = 0.243344
Maximum accepted flit rate = 0.274 (at node 12)
Average injected packet length = 1.99943
Average accepted packet length = 2.00141
Total in-flight flits = 682 (0 measured)
Class 1:
Minimum packet latency = 8
Average packet latency = 35.5283
Maximum packet latency = 85
Minimum network latency = 8
Average network latency = 35.4998
Maximum network latency = 85
Slowest packet = 12581
Minimum flit latency = 7
Average flit latency = 34.4998
Maximum flit latency = 84
Slowest flit = 25162
Minimum fragmentation = 0
Average fragmentation = 0
Maximum fragmentation = 0
Minimum injected packet rate = 0.019 (at node 15)
Average injected packet rate = 0.0254219
Maximum injected packet rate = 0.0345 (at node 10)
Minimum accepted packet rate = 0.0155 (at node 57)
Average accepted packet rate = 0.0250234
Maximum accepted packet rate = 0.034 (at node 37)
Minimum injected flit rate = 0.038 (at node 15)
Average injected flit rate = 0.0508359
Maximum injected flit rate = 0.069 (at node 10)
Minimum accepted flit rate = 0.031 (at node 57)
Average accepted flit rate = 0.0500469
Maximum accepted flit rate = 0.068 (at node 37)
Average injected packet length = 1.99969
Average accepted packet length = 2
Total in-flight flits = 102 (0 measured)
latency change    = 0.00296339
throughput change = 0.019905
latency change    = 0.000455081
throughput change = 0.018108
0
Class 0:
Minimum packet latency = 8
Average packet latency = 39.8002
Maximum packet latency = 122
Minimum network latency = 8
Average network latency = 39.5063
Maximum network latency = 122
Slowest packet = 20810
Minimum flit latency = 7
Average flit latency = 37.8219
Maximum flit latency = 121
Slowest flit = 41621
Minimum fragmentation = 0
Average fragmentation = 1.32326
Maximum fragmentation = 23
Minimum injected packet rate = 0.096 (at node 19)
Average injected packet rate = 0.124797
Maximum injected packet rate = 0.153 (at node 29)
Minimum accepted packet rate = 0.105 (at node 12)
Average accepted packet rate = 0.125625
Maximum accepted packet rate = 0.153 (at node 23)
Minimum injected flit rate = 0.192 (at node 19)
Average injected flit rate = 0.249625
Maximum injected flit rate = 0.306 (at node 29)
Minimum accepted flit rate = 0.21 (at node 12)
Average accepted flit rate = 0.251109
Maximum accepted flit rate = 0.307 (at node 23)
Average injected packet length = 2.00025
Average accepted packet length = 1.99888
Total in-flight flits = 583 (0 measured)
Class 1:
Minimum packet latency = 8
Average packet latency = 35.8492
Maximum packet latency = 83
Minimum network latency = 8
Average network latency = 35.8262
Maximum network latency = 83
Slowest packet = 22488
Minimum flit latency = 7
Average flit latency = 34.8462
Maximum flit latency = 82
Slowest flit = 44976
Minimum fragmentation = 0
Average fragmentation = 0
Maximum fragmentation = 0
Minimum injected packet rate = 0.016 (at node 61)
Average injected packet rate = 0.0245
Maximum injected packet rate = 0.038 (at node 29)
Minimum accepted packet rate = 0.014 (at node 3)
Average accepted packet rate = 0.0244531
Maximum accepted packet rate = 0.039 (at node 54)
Minimum injected flit rate = 0.032 (at node 61)
Average injected flit rate = 0.0490156
Maximum injected flit rate = 0.076 (at node 29)
Minimum accepted flit rate = 0.028 (at node 3)
Average accepted flit rate = 0.0489531
Maximum accepted flit rate = 0.078 (at node 54)
Average injected packet length = 2.00064
Average accepted packet length = 2.00192
Total in-flight flits = 105 (0 measured)
latency change    = 0.00261656
throughput change = 0.0309253
latency change    = 0.00895268
throughput change = 0.0223428
Warmed up ...Time used is 3000 cycles
1
Class 0:
Minimum packet latency = 8
Average packet latency = 39.2588
Maximum packet latency = 113
Minimum network latency = 8
Average network latency = 38.9702
Maximum network latency = 111
Slowest packet = 30398
Minimum flit latency = 7
Average flit latency = 37.5491
Maximum flit latency = 110
Slowest flit = 60797
Minimum fragmentation = 0
Average fragmentation = 1.33162
Maximum fragmentation = 20
Minimum injected packet rate = 0.101 (at node 62)
Average injected packet rate = 0.123625
Maximum injected packet rate = 0.155 (at node 4)
Minimum accepted packet rate = 0.088 (at node 17)
Average accepted packet rate = 0.123297
Maximum accepted packet rate = 0.152 (at node 20)
Minimum injected flit rate = 0.202 (at node 62)
Average injected flit rate = 0.24725
Maximum injected flit rate = 0.31 (at node 4)
Minimum accepted flit rate = 0.177 (at node 17)
Average accepted flit rate = 0.246562
Maximum accepted flit rate = 0.304 (at node 20)
Average injected packet length = 2
Average accepted packet length = 1.99975
Total in-flight flits = 629 (629 measured)
Class 1:
Minimum packet latency = 8
Average packet latency = 35.3676
Maximum packet latency = 87
Minimum network latency = 8
Average network latency = 35.3361
Maximum network latency = 87
Slowest packet = 29021
Minimum flit latency = 7
Average flit latency = 34.557
Maximum flit latency = 86
Slowest flit = 58042
Minimum fragmentation = 0
Average fragmentation = 0
Maximum fragmentation = 0
Minimum injected packet rate = 0.016 (at node 36)
Average injected packet rate = 0.0260469
Maximum injected packet rate = 0.035 (at node 26)
Minimum accepted packet rate = 0.011 (at node 20)
Average accepted packet rate = 0.025625
Maximum accepted packet rate = 0.043 (at node 30)
Minimum injected flit rate = 0.032 (at node 36)
Average injected flit rate = 0.0520469
Maximum injected flit rate = 0.07 (at node 26)
Minimum accepted flit rate = 0.022 (at node 20)
Average accepted flit rate = 0.0512188
Maximum accepted flit rate = 0.086 (at node 30)
Average injected packet length = 1.9982
Average accepted packet length = 1.99878
Total in-flight flits = 161 (161 measured)
latency change    = 0.013792
throughput change = 0.0184411
latency change    = 0.0136173
throughput change = 0.0442343
1
Class 0:
Minimum packet latency = 8
Average packet latency = 39.4423
Maximum packet latency = 113
Minimum network latency = 8
Average network latency = 39.1496
Maximum network latency = 111
Slowest packet = 30398
Minimum flit latency = 7
Average flit latency = 37.59
Maximum flit latency = 110
Slowest flit = 60797
Minimum fragmentation = 0
Average fragmentation = 1.3286
Maximum fragmentation = 20
Minimum injected packet rate = 0.1085 (at node 33)
Average injected packet rate = 0.124078
Maximum injected packet rate = 0.139 (at node 57)
Minimum accepted packet rate = 0.106 (at node 17)
Average accepted packet rate = 0.123891
Maximum accepted packet rate = 0.144 (at node 20)
Minimum injected flit rate = 0.217 (at node 33)
Average injected flit rate = 0.248141
Maximum injected flit rate = 0.278 (at node 57)
Minimum accepted flit rate = 0.2125 (at node 17)
Average accepted flit rate = 0.247805
Maximum accepted flit rate = 0.288 (at node 20)
Average injected packet length = 1.99987
Average accepted packet length = 2.00019
Total in-flight flits = 628 (628 measured)
Class 1:
Minimum packet latency = 8
Average packet latency = 35.6173
Maximum packet latency = 87
Minimum network latency = 8
Average network latency = 35.5888
Maximum network latency = 87
Slowest packet = 29021
Minimum flit latency = 7
Average flit latency = 34.6874
Maximum flit latency = 86
Slowest flit = 58042
Minimum fragmentation = 0
Average fragmentation = 0
Maximum fragmentation = 0
Minimum injected packet rate = 0.0195 (at node 7)
Average injected packet rate = 0.0255547
Maximum injected packet rate = 0.0365 (at node 59)
Minimum accepted packet rate = 0.016 (at node 20)
Average accepted packet rate = 0.0255937
Maximum accepted packet rate = 0.0405 (at node 51)
Minimum injected flit rate = 0.039 (at node 7)
Average injected flit rate = 0.0510859
Maximum injected flit rate = 0.073 (at node 59)
Minimum accepted flit rate = 0.032 (at node 20)
Average accepted flit rate = 0.0511797
Maximum accepted flit rate = 0.081 (at node 51)
Average injected packet length = 1.99908
Average accepted packet length = 1.99969
Total in-flight flits = 96 (96 measured)
latency change    = 0.00465229
throughput change = 0.00501277
latency change    = 0.00701139
throughput change = 0.000763242
1
Class 0:
Minimum packet latency = 8
Average packet latency = 39.5727
Maximum packet latency = 125
Minimum network latency = 8
Average network latency = 39.2787
Maximum network latency = 124
Slowest packet = 55820
Minimum flit latency = 7
Average flit latency = 37.6784
Maximum flit latency = 123
Slowest flit = 111641
Minimum fragmentation = 0
Average fragmentation = 1.32501
Maximum fragmentation = 21
Minimum injected packet rate = 0.111 (at node 62)
Average injected packet rate = 0.124083
Maximum injected packet rate = 0.138667 (at node 57)
Minimum accepted packet rate = 0.108667 (at node 17)
Average accepted packet rate = 0.123714
Maximum accepted packet rate = 0.14 (at node 57)
Minimum injected flit rate = 0.222 (at node 62)
Average injected flit rate = 0.248177
Maximum injected flit rate = 0.277333 (at node 57)
Minimum accepted flit rate = 0.217667 (at node 17)
Average accepted flit rate = 0.247453
Maximum accepted flit rate = 0.280333 (at node 57)
Average injected packet length = 2.00008
Average accepted packet length = 2.00021
Total in-flight flits = 720 (720 measured)
Class 1:
Minimum packet latency = 8
Average packet latency = 35.558
Maximum packet latency = 87
Minimum network latency = 8
Average network latency = 35.5309
Maximum network latency = 87
Slowest packet = 29021
Minimum flit latency = 7
Average flit latency = 34.5986
Maximum flit latency = 86
Slowest flit = 58042
Minimum fragmentation = 0
Average fragmentation = 0
Maximum fragmentation = 0
Minimum injected packet rate = 0.0206667 (at node 7)
Average injected packet rate = 0.025474
Maximum injected packet rate = 0.031 (at node 59)
Minimum accepted packet rate = 0.0186667 (at node 43)
Average accepted packet rate = 0.0254531
Maximum accepted packet rate = 0.0313333 (at node 51)
Minimum injected flit rate = 0.0413333 (at node 7)
Average injected flit rate = 0.0509479
Maximum injected flit rate = 0.062 (at node 59)
Minimum accepted flit rate = 0.0373333 (at node 43)
Average accepted flit rate = 0.0508906
Maximum accepted flit rate = 0.0626667 (at node 51)
Average injected packet length = 2
Average accepted packet length = 1.99939
Total in-flight flits = 116 (116 measured)
latency change    = 0.00329478
throughput change = 0.00142072
latency change    = 0.00166713
throughput change = 0.00568007
Draining all recorded packets ...
Draining remaining packets ...
Time taken is 6153 cycles
====== Traffic class 0 ======
Overall minimum packet latency = 8 (1 samples)
Overall average packet latency = 39.7503 (1 samples)
Overall maximum packet latency = 125 (1 samples)
Overall minimum network latency = 8 (1 samples)
Overall average network latency = 39.4569 (1 samples)
Overall maximum network latency = 124 (1 samples)
Overall minimum flit latency = 7 (1 samples)
Overall average flit latency = 37.8346 (1 samples)
Overall maximum flit latency = 123 (1 samples)
Overall minimum fragmentation = 0 (1 samples)
Overall average fragmentation = 1.32589 (1 samples)
Overall maximum fragmentation = 21 (1 samples)
Overall minimum injected packet rate = 0.111 (1 samples)
Overall average injected packet rate = 0.124083 (1 samples)
Overall maximum injected packet rate = 0.138667 (1 samples)
Overall minimum accepted packet rate = 0.108667 (1 samples)
Overall average accepted packet rate = 0.123714 (1 samples)
Overall maximum accepted packet rate = 0.14 (1 samples)
Overall minimum injected flit rate = 0.222 (1 samples)
Overall average injected flit rate = 0.248177 (1 samples)
Overall maximum injected flit rate = 0.277333 (1 samples)
Overall minimum accepted flit rate = 0.217667 (1 samples)
Overall average accepted flit rate = 0.247453 (1 samples)
Overall maximum accepted flit rate = 0.280333 (1 samples)
Overall average injected packet size = 2.00008 (1 samples)
Overall average accepted packet size = 2.00021 (1 samples)
Overall average hops = 6.26683 (1 samples)
====== Traffic class 1 ======
Overall minimum packet latency = 8 (1 samples)
Overall average packet latency = 35.6066 (1 samples)
Overall maximum packet latency = 87 (1 samples)
Overall minimum network latency = 8 (1 samples)
Overall average network latency = 35.5794 (1 samples)
Overall maximum network latency = 87 (1 samples)
Overall minimum flit latency = 7 (1 samples)
Overall average flit latency = 34.6622 (1 samples)
Overall maximum flit latency = 86 (1 samples)
Overall minimum fragmentation = 0 (1 samples)
Overall average fragmentation = 0 (1 samples)
Overall maximum fragmentation = 0 (1 samples)
Overall minimum injected packet rate = 0.0206667 (1 samples)
Overall average injected packet rate = 0.025474 (1 samples)
Overall maximum injected packet rate = 0.031 (1 samples)
Overall minimum accepted packet rate = 0.0186667 (1 samples)
Overall average accepted packet rate = 0.0254531 (1 samples)
Overall maximum accepted packet rate = 0.0313333 (1 samples)
Overall minimum injected flit rate = 0.0413333 (1 samples)
Overall average injected flit rate = 0.0509479 (1 samples)
Overall maximum injected flit rate = 0.062 (1 samples)
Overall minimum accepted flit rate = 0.0373333 (1 samples)
Overall average accepted flit rate = 0.0508906 (1 samples)
Overall maximum accepted flit rate = 0.0626667 (1 samples)
Overall average injected packet size = 2 (1 samples)
Overall average accepted packet size = 1.99939 (1 samples)
Overall average hops = 6.2754 (1 samples)
Total run time 7.42707
