BEGIN Configuration File: ./examples/project_inputs/config-iqevc_tp-bitcomp_c1ir-0.05_c0ir-0.29
//
// EVC Router Config File -         
//
// Jason Deng, Mike Wang        
//        

//
// Flow control
//

num_vcs     = 5;
vc_buf_size = 6;

wait_for_tail_credit = 0;

vc_allocator = select;
sw_allocator = select;
alloc_iters  = 2;

credit_delay   = 2;
routing_delay  = 1;
vc_alloc_delay = 1;
sw_alloc_delay = 1;
st_final_delay = 1;

input_speedup     = 1;
output_speedup    = 1;
internal_speedup  = 1.0;

//
// Traffic
//

sim_type = latency;

warmup_periods = 3;
sample_period  = 1000;
sim_count = 1;

//
//topoogy
//

topology = mesh;
k  = 8;
n  = 2;

//
// Routing
//

router = iqevc;
routing_function = dor;

packet_size = 2;
use_read_write = 0;

traffic  = bitcomp;
injection_rate = {0.29,0.05};
injection_rate_uses_flits = 1;

classes = 2;
class_priority = {0,1};
priority = class;

noq = 0;
hold_switch_for_packet = 0;
vc_prioritize_empty = 0;

//
// express virtual channel settings
//

evc = 1;
num_evcs = 1;
evc_prioritized_class = 1;
selective_vc_request = 1;
hold_switch_for_evc_packet = 1;
evc_next_route = 1;

END Configuration File: ./examples/project_inputs/config-iqevc_tp-bitcomp_c1ir-0.05_c0ir-0.29
0
Class 0:
Minimum packet latency = 18
Average packet latency = 202.707
Maximum packet latency = 849
Minimum network latency = 18
Average network latency = 196.402
Maximum network latency = 849
Slowest packet = 1525
Minimum flit latency = 17
Average flit latency = 194.571
Maximum flit latency = 848
Slowest flit = 3050
Minimum fragmentation = 0
Average fragmentation = 1.53976
Maximum fragmentation = 38
Minimum injected packet rate = 0.038 (at node 14)
Average injected packet rate = 0.0821875
Maximum injected packet rate = 0.165 (at node 35)
Minimum accepted packet rate = 0.019 (at node 16)
Average accepted packet rate = 0.0575781
Maximum accepted packet rate = 0.156 (at node 28)
Minimum injected flit rate = 0.076 (at node 14)
Average injected flit rate = 0.164266
Maximum injected flit rate = 0.33 (at node 35)
Minimum accepted flit rate = 0.038 (at node 16)
Average accepted flit rate = 0.115203
Maximum accepted flit rate = 0.312 (at node 28)
Average injected packet length = 1.99867
Average accepted packet length = 2.00081
Total in-flight flits = 3249 (0 measured)
Class 1:
Minimum packet latency = 18
Average packet latency = 129.44
Maximum packet latency = 686
Minimum network latency = 18
Average network latency = 109.643
Maximum network latency = 686
Slowest packet = 2672
Minimum flit latency = 17
Average flit latency = 108.16
Maximum flit latency = 685
Slowest flit = 5344
Minimum fragmentation = 0
Average fragmentation = 0
Maximum fragmentation = 0
Minimum injected packet rate = 0.012 (at node 56)
Average injected packet rate = 0.0233125
Maximum injected packet rate = 0.034 (at node 6)
Minimum accepted packet rate = 0.004 (at node 0)
Average accepted packet rate = 0.0183437
Maximum accepted packet rate = 0.033 (at node 36)
Minimum injected flit rate = 0.024 (at node 56)
Average injected flit rate = 0.0466094
Maximum injected flit rate = 0.068 (at node 6)
Minimum accepted flit rate = 0.008 (at node 0)
Average accepted flit rate = 0.03675
Maximum accepted flit rate = 0.066 (at node 36)
Average injected packet length = 1.99933
Average accepted packet length = 2.00341
Total in-flight flits = 678 (0 measured)
latency change    = 1
throughput change = 1
latency change    = 1
throughput change = 1
0
Class 0:
Minimum packet latency = 18
Average packet latency = 380.264
Maximum packet latency = 1753
Minimum network latency = 18
Average network latency = 305.089
Maximum network latency = 1753
Slowest packet = 2606
Minimum flit latency = 17
Average flit latency = 302.939
Maximum flit latency = 1752
Slowest flit = 5212
Minimum fragmentation = 0
Average fragmentation = 1.64174
Maximum fragmentation = 38
Minimum injected packet rate = 0.0225 (at node 14)
Average injected packet rate = 0.0622656
Maximum injected packet rate = 0.173 (at node 35)
Minimum accepted packet rate = 0.0135 (at node 49)
Average accepted packet rate = 0.0500469
Maximum accepted packet rate = 0.1625 (at node 28)
Minimum injected flit rate = 0.045 (at node 14)
Average injected flit rate = 0.124477
Maximum injected flit rate = 0.3455 (at node 35)
Minimum accepted flit rate = 0.027 (at node 49)
Average accepted flit rate = 0.100133
Maximum accepted flit rate = 0.325 (at node 28)
Average injected packet length = 1.99912
Average accepted packet length = 2.00078
Total in-flight flits = 3231 (0 measured)
Class 1:
Minimum packet latency = 18
Average packet latency = 211.14
Maximum packet latency = 1587
Minimum network latency = 18
Average network latency = 162.409
Maximum network latency = 1354
Slowest packet = 4490
Minimum flit latency = 17
Average flit latency = 160.776
Maximum flit latency = 1353
Slowest flit = 8980
Minimum fragmentation = 0
Average fragmentation = 0
Maximum fragmentation = 0
Minimum injected packet rate = 0.0165 (at node 20)
Average injected packet rate = 0.0242344
Maximum injected packet rate = 0.0345 (at node 21)
Minimum accepted packet rate = 0.0125 (at node 6)
Average accepted packet rate = 0.0218516
Maximum accepted packet rate = 0.032 (at node 42)
Minimum injected flit rate = 0.033 (at node 20)
Average injected flit rate = 0.0484375
Maximum injected flit rate = 0.069 (at node 21)
Minimum accepted flit rate = 0.025 (at node 6)
Average accepted flit rate = 0.0437188
Maximum accepted flit rate = 0.064 (at node 42)
Average injected packet length = 1.99871
Average accepted packet length = 2.00072
Total in-flight flits = 656 (0 measured)
latency change    = 0.466929
throughput change = 0.150503
latency change    = 0.386949
throughput change = 0.1594
Average latency for class 0 exceeded 500 cycles. Aborting simulation.
Too many sample periods needed to converge
Simulation unstable, ending ...
Total run time 6.53521
