BEGIN Configuration File: ./examples/project_inputs/config-iq_tp-bitcomp_c1ir-0.05_c0ir-0.05_prio-islip
//
// EVC Router Config File -         
//
// Jason Deng, Mike Wang        
//        

//
// Flow control
//

num_vcs     = 5;
vc_buf_size = 6;

wait_for_tail_credit = 0;

vc_allocator = islip;
sw_allocator = islip;
alloc_iters  = 2;

credit_delay   = 2;
routing_delay  = 1;
vc_alloc_delay = 1;
sw_alloc_delay = 1;
st_final_delay = 1;

input_speedup     = 1;
output_speedup    = 1;
internal_speedup  = 1.0;

//
// Traffic
//

sim_type = latency;

warmup_periods = 3;
sample_period  = 1000;
sim_count = 1;

//
//topoogy
//

topology = mesh;
k  = 8;
n  = 2;

//
// Routing
//

router = iq;
routing_function = dor;

packet_size = 2;
use_read_write = 0;

traffic  = bitcomp;
injection_rate = {0.05,0.05};
injection_rate_uses_flits = 1;

classes = 2;
class_priority = {0,0};
priority = class;

noq = 0;
hold_switch_for_packet = 0;
vc_prioritize_empty = 0;

//
// express virtual channel settings
//

evc = 1;
num_evcs = 1;
evc_prioritized_class = 1;
selective_vc_request = 1;
hold_switch_for_evc_packet = 1;
evc_next_route = 1;

END Configuration File: ./examples/project_inputs/config-iq_tp-bitcomp_c1ir-0.05_c0ir-0.05_prio-islip
0
Class 0:
Minimum packet latency = 18
Average packet latency = 49.0341
Maximum packet latency = 89
Minimum network latency = 18
Average network latency = 48.9836
Maximum network latency = 89
Slowest packet = 144
Minimum flit latency = 16
Average flit latency = 47.7968
Maximum flit latency = 88
Slowest flit = 288
Minimum fragmentation = 0
Average fragmentation = 0.285082
Maximum fragmentation = 7
Minimum injected packet rate = 0.015 (at node 23)
Average injected packet rate = 0.0259844
Maximum injected packet rate = 0.038 (at node 18)
Minimum accepted packet rate = 0.013 (at node 6)
Average accepted packet rate = 0.0247188
Maximum accepted packet rate = 0.038 (at node 45)
Minimum injected flit rate = 0.03 (at node 23)
Average injected flit rate = 0.0519375
Maximum injected flit rate = 0.076 (at node 18)
Minimum accepted flit rate = 0.026 (at node 6)
Average accepted flit rate = 0.0494375
Maximum accepted flit rate = 0.076 (at node 45)
Average injected packet length = 1.9988
Average accepted packet length = 2
Total in-flight flits = 162 (0 measured)
Class 1:
Minimum packet latency = 18
Average packet latency = 49.3859
Maximum packet latency = 91
Minimum network latency = 18
Average network latency = 49.3373
Maximum network latency = 91
Slowest packet = 119
Minimum flit latency = 17
Average flit latency = 48.1389
Maximum flit latency = 90
Slowest flit = 238
Minimum fragmentation = 0
Average fragmentation = 0.276792
Maximum fragmentation = 7
Minimum injected packet rate = 0.015 (at node 22)
Average injected packet rate = 0.0249688
Maximum injected packet rate = 0.039 (at node 21)
Minimum accepted packet rate = 0.013 (at node 33)
Average accepted packet rate = 0.0237656
Maximum accepted packet rate = 0.037 (at node 42)
Minimum injected flit rate = 0.03 (at node 22)
Average injected flit rate = 0.0499219
Maximum injected flit rate = 0.077 (at node 21)
Minimum accepted flit rate = 0.026 (at node 33)
Average accepted flit rate = 0.0475781
Maximum accepted flit rate = 0.074 (at node 42)
Average injected packet length = 1.99937
Average accepted packet length = 2.00197
Total in-flight flits = 151 (0 measured)
latency change    = 1
throughput change = 1
latency change    = 1
throughput change = 1
0
Class 0:
Minimum packet latency = 18
Average packet latency = 48.9029
Maximum packet latency = 89
Minimum network latency = 18
Average network latency = 48.8539
Maximum network latency = 89
Slowest packet = 144
Minimum flit latency = 16
Average flit latency = 47.672
Maximum flit latency = 88
Slowest flit = 288
Minimum fragmentation = 0
Average fragmentation = 0.278536
Maximum fragmentation = 9
Minimum injected packet rate = 0.0165 (at node 57)
Average injected packet rate = 0.0256953
Maximum injected packet rate = 0.0355 (at node 56)
Minimum accepted packet rate = 0.0165 (at node 6)
Average accepted packet rate = 0.0251875
Maximum accepted packet rate = 0.0345 (at node 7)
Minimum injected flit rate = 0.033 (at node 57)
Average injected flit rate = 0.0513828
Maximum injected flit rate = 0.071 (at node 56)
Minimum accepted flit rate = 0.033 (at node 6)
Average accepted flit rate = 0.0503984
Maximum accepted flit rate = 0.069 (at node 7)
Average injected packet length = 1.9997
Average accepted packet length = 2.00093
Total in-flight flits = 127 (0 measured)
Class 1:
Minimum packet latency = 18
Average packet latency = 49.6517
Maximum packet latency = 92
Minimum network latency = 18
Average network latency = 49.6051
Maximum network latency = 92
Slowest packet = 5265
Minimum flit latency = 17
Average flit latency = 48.4292
Maximum flit latency = 91
Slowest flit = 10530
Minimum fragmentation = 0
Average fragmentation = 0.287472
Maximum fragmentation = 9
Minimum injected packet rate = 0.0175 (at node 17)
Average injected packet rate = 0.0247422
Maximum injected packet rate = 0.034 (at node 29)
Minimum accepted packet rate = 0.0165 (at node 46)
Average accepted packet rate = 0.0241328
Maximum accepted packet rate = 0.034 (at node 34)
Minimum injected flit rate = 0.035 (at node 17)
Average injected flit rate = 0.0494687
Maximum injected flit rate = 0.068 (at node 29)
Minimum accepted flit rate = 0.033 (at node 46)
Average accepted flit rate = 0.0482891
Maximum accepted flit rate = 0.068 (at node 34)
Average injected packet length = 1.99937
Average accepted packet length = 2.00097
Total in-flight flits = 153 (0 measured)
latency change    = 0.00268324
throughput change = 0.0190668
latency change    = 0.00535202
throughput change = 0.0147225
0
Class 0:
Minimum packet latency = 18
Average packet latency = 49.6469
Maximum packet latency = 91
Minimum network latency = 18
Average network latency = 49.607
Maximum network latency = 91
Slowest packet = 7143
Minimum flit latency = 16
Average flit latency = 48.435
Maximum flit latency = 90
Slowest flit = 14287
Minimum fragmentation = 0
Average fragmentation = 0.279639
Maximum fragmentation = 7
Minimum injected packet rate = 0.016 (at node 44)
Average injected packet rate = 0.0243125
Maximum injected packet rate = 0.037 (at node 12)
Minimum accepted packet rate = 0.016 (at node 19)
Average accepted packet rate = 0.02425
Maximum accepted packet rate = 0.039 (at node 51)
Minimum injected flit rate = 0.032 (at node 44)
Average injected flit rate = 0.0486406
Maximum injected flit rate = 0.074 (at node 12)
Minimum accepted flit rate = 0.032 (at node 19)
Average accepted flit rate = 0.0484531
Maximum accepted flit rate = 0.078 (at node 51)
Average injected packet length = 2.00064
Average accepted packet length = 1.99807
Total in-flight flits = 138 (0 measured)
Class 1:
Minimum packet latency = 18
Average packet latency = 48.7193
Maximum packet latency = 87
Minimum network latency = 18
Average network latency = 48.6654
Maximum network latency = 87
Slowest packet = 7157
Minimum flit latency = 17
Average flit latency = 47.4663
Maximum flit latency = 86
Slowest flit = 14315
Minimum fragmentation = 0
Average fragmentation = 0.28131
Maximum fragmentation = 5
Minimum injected packet rate = 0.015 (at node 48)
Average injected packet rate = 0.0244844
Maximum injected packet rate = 0.035 (at node 21)
Minimum accepted packet rate = 0.014 (at node 15)
Average accepted packet rate = 0.0243281
Maximum accepted packet rate = 0.035 (at node 45)
Minimum injected flit rate = 0.03 (at node 48)
Average injected flit rate = 0.049
Maximum injected flit rate = 0.07 (at node 21)
Minimum accepted flit rate = 0.027 (at node 15)
Average accepted flit rate = 0.048625
Maximum accepted flit rate = 0.07 (at node 45)
Average injected packet length = 2.00128
Average accepted packet length = 1.99872
Total in-flight flits = 175 (0 measured)
latency change    = 0.0149857
throughput change = 0.0401483
latency change    = 0.0191369
throughput change = 0.00690874
Warmed up ...Time used is 3000 cycles
1
Class 0:
Minimum packet latency = 18
Average packet latency = 49.0439
Maximum packet latency = 85
Minimum network latency = 18
Average network latency = 49.0053
Maximum network latency = 85
Slowest packet = 10797
Minimum flit latency = 17
Average flit latency = 48.2143
Maximum flit latency = 84
Slowest flit = 21594
Minimum fragmentation = 0
Average fragmentation = 0.286569
Maximum fragmentation = 6
Minimum injected packet rate = 0.017 (at node 7)
Average injected packet rate = 0.0246875
Maximum injected packet rate = 0.031 (at node 0)
Minimum accepted packet rate = 0.015 (at node 56)
Average accepted packet rate = 0.0245781
Maximum accepted packet rate = 0.033 (at node 57)
Minimum injected flit rate = 0.034 (at node 7)
Average injected flit rate = 0.0493281
Maximum injected flit rate = 0.062 (at node 0)
Minimum accepted flit rate = 0.03 (at node 56)
Average accepted flit rate = 0.0492187
Maximum accepted flit rate = 0.066 (at node 57)
Average injected packet length = 1.9981
Average accepted packet length = 2.00254
Total in-flight flits = 148 (148 measured)
Class 1:
Minimum packet latency = 18
Average packet latency = 48.9219
Maximum packet latency = 88
Minimum network latency = 18
Average network latency = 48.8716
Maximum network latency = 88
Slowest packet = 10804
Minimum flit latency = 16
Average flit latency = 48.0485
Maximum flit latency = 87
Slowest flit = 19056
Minimum fragmentation = 0
Average fragmentation = 0.263871
Maximum fragmentation = 4
Minimum injected packet rate = 0.016 (at node 58)
Average injected packet rate = 0.0257031
Maximum injected packet rate = 0.037 (at node 40)
Minimum accepted packet rate = 0.015 (at node 60)
Average accepted packet rate = 0.0255937
Maximum accepted packet rate = 0.036 (at node 23)
Minimum injected flit rate = 0.032 (at node 58)
Average injected flit rate = 0.051375
Maximum injected flit rate = 0.074 (at node 40)
Minimum accepted flit rate = 0.03 (at node 60)
Average accepted flit rate = 0.0511719
Maximum accepted flit rate = 0.072 (at node 23)
Average injected packet length = 1.99878
Average accepted packet length = 1.99939
Total in-flight flits = 192 (192 measured)
latency change    = 0.0122956
throughput change = 0.0155556
latency change    = 0.00414136
throughput change = 0.049771
1
Class 0:
Minimum packet latency = 18
Average packet latency = 49.5321
Maximum packet latency = 88
Minimum network latency = 18
Average network latency = 49.4907
Maximum network latency = 88
Slowest packet = 12895
Minimum flit latency = 17
Average flit latency = 48.4908
Maximum flit latency = 87
Slowest flit = 25791
Minimum fragmentation = 0
Average fragmentation = 0.286413
Maximum fragmentation = 6
Minimum injected packet rate = 0.017 (at node 44)
Average injected packet rate = 0.0245938
Maximum injected packet rate = 0.0325 (at node 0)
Minimum accepted packet rate = 0.017 (at node 19)
Average accepted packet rate = 0.0245156
Maximum accepted packet rate = 0.0325 (at node 46)
Minimum injected flit rate = 0.034 (at node 44)
Average injected flit rate = 0.0491719
Maximum injected flit rate = 0.065 (at node 0)
Minimum accepted flit rate = 0.034 (at node 19)
Average accepted flit rate = 0.0490703
Maximum accepted flit rate = 0.065 (at node 46)
Average injected packet length = 1.99936
Average accepted packet length = 2.00159
Total in-flight flits = 153 (153 measured)
Class 1:
Minimum packet latency = 18
Average packet latency = 48.99
Maximum packet latency = 88
Minimum network latency = 18
Average network latency = 48.9489
Maximum network latency = 88
Slowest packet = 10804
Minimum flit latency = 16
Average flit latency = 47.9474
Maximum flit latency = 87
Slowest flit = 19056
Minimum fragmentation = 0
Average fragmentation = 0.263867
Maximum fragmentation = 5
Minimum injected packet rate = 0.017 (at node 2)
Average injected packet rate = 0.0255
Maximum injected packet rate = 0.033 (at node 59)
Minimum accepted packet rate = 0.018 (at node 22)
Average accepted packet rate = 0.0256172
Maximum accepted packet rate = 0.0325 (at node 36)
Minimum injected flit rate = 0.034 (at node 2)
Average injected flit rate = 0.051
Maximum injected flit rate = 0.066 (at node 59)
Minimum accepted flit rate = 0.036 (at node 22)
Average accepted flit rate = 0.0512578
Maximum accepted flit rate = 0.065 (at node 36)
Average injected packet length = 2
Average accepted packet length = 2.00091
Total in-flight flits = 142 (142 measured)
latency change    = 0.00985648
throughput change = 0.003025
latency change    = 0.00138878
throughput change = 0.00167657
1
Class 0:
Minimum packet latency = 18
Average packet latency = 49.4157
Maximum packet latency = 88
Minimum network latency = 18
Average network latency = 49.3755
Maximum network latency = 88
Slowest packet = 12895
Minimum flit latency = 17
Average flit latency = 48.3108
Maximum flit latency = 87
Slowest flit = 25791
Minimum fragmentation = 0
Average fragmentation = 0.294269
Maximum fragmentation = 10
Minimum injected packet rate = 0.0166667 (at node 44)
Average injected packet rate = 0.0248594
Maximum injected packet rate = 0.03 (at node 15)
Minimum accepted packet rate = 0.0166667 (at node 19)
Average accepted packet rate = 0.0247135
Maximum accepted packet rate = 0.0303333 (at node 3)
Minimum injected flit rate = 0.0333333 (at node 44)
Average injected flit rate = 0.0497135
Maximum injected flit rate = 0.06 (at node 15)
Minimum accepted flit rate = 0.0333333 (at node 19)
Average accepted flit rate = 0.0494323
Maximum accepted flit rate = 0.0606667 (at node 3)
Average injected packet length = 1.99979
Average accepted packet length = 2.00021
Total in-flight flits = 193 (193 measured)
Class 1:
Minimum packet latency = 18
Average packet latency = 49.179
Maximum packet latency = 88
Minimum network latency = 18
Average network latency = 49.1335
Maximum network latency = 88
Slowest packet = 10804
Minimum flit latency = 16
Average flit latency = 48.07
Maximum flit latency = 87
Slowest flit = 19056
Minimum fragmentation = 0
Average fragmentation = 0.275784
Maximum fragmentation = 6
Minimum injected packet rate = 0.019 (at node 3)
Average injected packet rate = 0.0256823
Maximum injected packet rate = 0.0316667 (at node 38)
Minimum accepted packet rate = 0.0186667 (at node 60)
Average accepted packet rate = 0.0257083
Maximum accepted packet rate = 0.032 (at node 25)
Minimum injected flit rate = 0.038 (at node 3)
Average injected flit rate = 0.0513594
Maximum injected flit rate = 0.0633333 (at node 38)
Minimum accepted flit rate = 0.0373333 (at node 60)
Average accepted flit rate = 0.0514219
Maximum accepted flit rate = 0.064 (at node 25)
Average injected packet length = 1.9998
Average accepted packet length = 2.0002
Total in-flight flits = 164 (164 measured)
latency change    = 0.00235462
throughput change = 0.00732273
latency change    = 0.00384455
throughput change = 0.00319052
Draining all recorded packets ...
Draining remaining packets ...
Time taken is 6155 cycles
====== Traffic class 0 ======
Overall minimum packet latency = 18 (1 samples)
Overall average packet latency = 49.5039 (1 samples)
Overall maximum packet latency = 88 (1 samples)
Overall minimum network latency = 18 (1 samples)
Overall average network latency = 49.4639 (1 samples)
Overall maximum network latency = 88 (1 samples)
Overall minimum flit latency = 17 (1 samples)
Overall average flit latency = 48.3729 (1 samples)
Overall maximum flit latency = 87 (1 samples)
Overall minimum fragmentation = 0 (1 samples)
Overall average fragmentation = 0.293945 (1 samples)
Overall maximum fragmentation = 10 (1 samples)
Overall minimum injected packet rate = 0.0166667 (1 samples)
Overall average injected packet rate = 0.0248594 (1 samples)
Overall maximum injected packet rate = 0.03 (1 samples)
Overall minimum accepted packet rate = 0.0166667 (1 samples)
Overall average accepted packet rate = 0.0247135 (1 samples)
Overall maximum accepted packet rate = 0.0303333 (1 samples)
Overall minimum injected flit rate = 0.0333333 (1 samples)
Overall average injected flit rate = 0.0497135 (1 samples)
Overall maximum injected flit rate = 0.06 (1 samples)
Overall minimum accepted flit rate = 0.0333333 (1 samples)
Overall average accepted flit rate = 0.0494323 (1 samples)
Overall maximum accepted flit rate = 0.0606667 (1 samples)
Overall average injected packet size = 1.99979 (1 samples)
Overall average accepted packet size = 2.00021 (1 samples)
Overall average hops = 9.04651 (1 samples)
====== Traffic class 1 ======
Overall minimum packet latency = 18 (1 samples)
Overall average packet latency = 49.2981 (1 samples)
Overall maximum packet latency = 88 (1 samples)
Overall minimum network latency = 18 (1 samples)
Overall average network latency = 49.2527 (1 samples)
Overall maximum network latency = 88 (1 samples)
Overall minimum flit latency = 16 (1 samples)
Overall average flit latency = 48.2078 (1 samples)
Overall maximum flit latency = 87 (1 samples)
Overall minimum fragmentation = 0 (1 samples)
Overall average fragmentation = 0.276009 (1 samples)
Overall maximum fragmentation = 6 (1 samples)
Overall minimum injected packet rate = 0.019 (1 samples)
Overall average injected packet rate = 0.0256823 (1 samples)
Overall maximum injected packet rate = 0.0316667 (1 samples)
Overall minimum accepted packet rate = 0.0186667 (1 samples)
Overall average accepted packet rate = 0.0257083 (1 samples)
Overall maximum accepted packet rate = 0.032 (1 samples)
Overall minimum injected flit rate = 0.038 (1 samples)
Overall average injected flit rate = 0.0513594 (1 samples)
Overall maximum injected flit rate = 0.0633333 (1 samples)
Overall minimum accepted flit rate = 0.0373333 (1 samples)
Overall average accepted flit rate = 0.0514219 (1 samples)
Overall maximum accepted flit rate = 0.064 (1 samples)
Overall average injected packet size = 1.9998 (1 samples)
Overall average accepted packet size = 2.0002 (1 samples)
Overall average hops = 9.01136 (1 samples)
Total run time 4.01489
