BEGIN Configuration File: ./examples/project_inputs/config-iq_tp-transpose_c1ir-0.05_c0ir-0.09_prio-islip
//
// EVC Router Config File -         
//
// Jason Deng, Mike Wang        
//        

//
// Flow control
//

num_vcs     = 5;
vc_buf_size = 6;

wait_for_tail_credit = 0;

vc_allocator = islip;
sw_allocator = islip;
alloc_iters  = 2;

credit_delay   = 2;
routing_delay  = 1;
vc_alloc_delay = 1;
sw_alloc_delay = 1;
st_final_delay = 1;

input_speedup     = 1;
output_speedup    = 1;
internal_speedup  = 1.0;

//
// Traffic
//

sim_type = latency;

warmup_periods = 3;
sample_period  = 1000;
sim_count = 1;

//
//topoogy
//

topology = mesh;
k  = 8;
n  = 2;

//
// Routing
//

router = iq;
routing_function = dor;

packet_size = 2;
use_read_write = 0;

traffic  = transpose;
injection_rate = {0.09,0.05};
injection_rate_uses_flits = 1;

classes = 2;
class_priority = {0,0};
priority = class;

noq = 0;
hold_switch_for_packet = 0;
vc_prioritize_empty = 0;

//
// express virtual channel settings
//

evc = 1;
num_evcs = 1;
evc_prioritized_class = 1;
selective_vc_request = 1;
hold_switch_for_evc_packet = 1;
evc_next_route = 1;

END Configuration File: ./examples/project_inputs/config-iq_tp-transpose_c1ir-0.05_c0ir-0.09_prio-islip
0
Class 0:
Minimum packet latency = 8
Average packet latency = 38.0139
Maximum packet latency = 143
Minimum network latency = 8
Average network latency = 37.9324
Maximum network latency = 143
Slowest packet = 1629
Minimum flit latency = 7
Average flit latency = 36.6874
Maximum flit latency = 142
Slowest flit = 3258
Minimum fragmentation = 0
Average fragmentation = 0.431337
Maximum fragmentation = 9
Minimum injected packet rate = 0.029 (at node 40)
Average injected packet rate = 0.0444063
Maximum injected packet rate = 0.061 (at node 50)
Minimum accepted packet rate = 0.027 (at node 5)
Average accepted packet rate = 0.0427812
Maximum accepted packet rate = 0.06 (at node 54)
Minimum injected flit rate = 0.058 (at node 40)
Average injected flit rate = 0.0887813
Maximum injected flit rate = 0.122 (at node 50)
Minimum accepted flit rate = 0.054 (at node 5)
Average accepted flit rate = 0.0856719
Maximum accepted flit rate = 0.12 (at node 54)
Average injected packet length = 1.9993
Average accepted packet length = 2.00256
Total in-flight flits = 201 (0 measured)
Class 1:
Minimum packet latency = 8
Average packet latency = 38.5249
Maximum packet latency = 133
Minimum network latency = 8
Average network latency = 38.4751
Maximum network latency = 133
Slowest packet = 3844
Minimum flit latency = 7
Average flit latency = 37.1864
Maximum flit latency = 132
Slowest flit = 7688
Minimum fragmentation = 0
Average fragmentation = 0.46301
Maximum fragmentation = 6
Minimum injected packet rate = 0.016 (at node 39)
Average injected packet rate = 0.0255625
Maximum injected packet rate = 0.035 (at node 17)
Minimum accepted packet rate = 0.015 (at node 13)
Average accepted packet rate = 0.0245
Maximum accepted packet rate = 0.035 (at node 10)
Minimum injected flit rate = 0.032 (at node 39)
Average injected flit rate = 0.0511094
Maximum injected flit rate = 0.07 (at node 17)
Minimum accepted flit rate = 0.03 (at node 13)
Average accepted flit rate = 0.0490469
Maximum accepted flit rate = 0.07 (at node 10)
Average injected packet length = 1.99939
Average accepted packet length = 2.00191
Total in-flight flits = 133 (0 measured)
latency change    = 1
throughput change = 1
latency change    = 1
throughput change = 1
0
Class 0:
Minimum packet latency = 8
Average packet latency = 41.5885
Maximum packet latency = 320
Minimum network latency = 8
Average network latency = 41.5097
Maximum network latency = 318
Slowest packet = 7508
Minimum flit latency = 6
Average flit latency = 40.2451
Maximum flit latency = 317
Slowest flit = 15016
Minimum fragmentation = 0
Average fragmentation = 0.44213
Maximum fragmentation = 11
Minimum injected packet rate = 0.0305 (at node 40)
Average injected packet rate = 0.0442891
Maximum injected packet rate = 0.0565 (at node 50)
Minimum accepted packet rate = 0.029 (at node 5)
Average accepted packet rate = 0.0431328
Maximum accepted packet rate = 0.055 (at node 22)
Minimum injected flit rate = 0.061 (at node 40)
Average injected flit rate = 0.0885391
Maximum injected flit rate = 0.113 (at node 50)
Minimum accepted flit rate = 0.058 (at node 5)
Average accepted flit rate = 0.0863047
Maximum accepted flit rate = 0.11 (at node 22)
Average injected packet length = 1.99912
Average accepted packet length = 2.00091
Total in-flight flits = 291 (0 measured)
Class 1:
Minimum packet latency = 8
Average packet latency = 42.4662
Maximum packet latency = 304
Minimum network latency = 8
Average network latency = 42.4108
Maximum network latency = 304
Slowest packet = 7049
Minimum flit latency = 7
Average flit latency = 41.1226
Maximum flit latency = 303
Slowest flit = 14098
Minimum fragmentation = 0
Average fragmentation = 0.455257
Maximum fragmentation = 6
Minimum injected packet rate = 0.0175 (at node 46)
Average injected packet rate = 0.0254766
Maximum injected packet rate = 0.033 (at node 21)
Minimum accepted packet rate = 0.0175 (at node 53)
Average accepted packet rate = 0.0249688
Maximum accepted packet rate = 0.033 (at node 42)
Minimum injected flit rate = 0.035 (at node 46)
Average injected flit rate = 0.0509375
Maximum injected flit rate = 0.066 (at node 21)
Minimum accepted flit rate = 0.035 (at node 53)
Average accepted flit rate = 0.0499453
Maximum accepted flit rate = 0.066 (at node 42)
Average injected packet length = 1.99939
Average accepted packet length = 2.00031
Total in-flight flits = 129 (0 measured)
latency change    = 0.0859517
throughput change = 0.00733231
latency change    = 0.0928111
throughput change = 0.0179884
0
Class 0:
Minimum packet latency = 8
Average packet latency = 49.9261
Maximum packet latency = 401
Minimum network latency = 8
Average network latency = 49.8495
Maximum network latency = 401
Slowest packet = 11578
Minimum flit latency = 7
Average flit latency = 48.6839
Maximum flit latency = 401
Slowest flit = 23224
Minimum fragmentation = 0
Average fragmentation = 0.427531
Maximum fragmentation = 9
Minimum injected packet rate = 0.03 (at node 52)
Average injected packet rate = 0.0450625
Maximum injected packet rate = 0.061 (at node 0)
Minimum accepted packet rate = 0.029 (at node 14)
Average accepted packet rate = 0.0450625
Maximum accepted packet rate = 0.061 (at node 0)
Minimum injected flit rate = 0.06 (at node 52)
Average injected flit rate = 0.0901719
Maximum injected flit rate = 0.121 (at node 0)
Minimum accepted flit rate = 0.058 (at node 14)
Average accepted flit rate = 0.0900625
Maximum accepted flit rate = 0.122 (at node 0)
Average injected packet length = 2.00104
Average accepted packet length = 1.99861
Total in-flight flits = 295 (0 measured)
Class 1:
Minimum packet latency = 8
Average packet latency = 50.1283
Maximum packet latency = 388
Minimum network latency = 8
Average network latency = 50.0721
Maximum network latency = 387
Slowest packet = 11570
Minimum flit latency = 6
Average flit latency = 48.7841
Maximum flit latency = 386
Slowest flit = 23140
Minimum fragmentation = 0
Average fragmentation = 0.492725
Maximum fragmentation = 10
Minimum injected packet rate = 0.014 (at node 0)
Average injected packet rate = 0.0240781
Maximum injected packet rate = 0.035 (at node 10)
Minimum accepted packet rate = 0.014 (at node 0)
Average accepted packet rate = 0.023625
Maximum accepted packet rate = 0.035 (at node 17)
Minimum injected flit rate = 0.028 (at node 0)
Average injected flit rate = 0.0481875
Maximum injected flit rate = 0.07 (at node 10)
Minimum accepted flit rate = 0.028 (at node 0)
Average accepted flit rate = 0.04725
Maximum accepted flit rate = 0.07 (at node 17)
Average injected packet length = 2.0013
Average accepted packet length = 2
Total in-flight flits = 187 (0 measured)
latency change    = 0.167
throughput change = 0.0417245
latency change    = 0.15285
throughput change = 0.0570437
Warmed up ...Time used is 3000 cycles
1
Class 0:
Minimum packet latency = 8
Average packet latency = 49.1366
Maximum packet latency = 461
Minimum network latency = 8
Average network latency = 49.0574
Maximum network latency = 460
Slowest packet = 15464
Minimum flit latency = 7
Average flit latency = 54.2333
Maximum flit latency = 482
Slowest flit = 23902
Minimum fragmentation = 0
Average fragmentation = 0.52833
Maximum fragmentation = 9
Minimum injected packet rate = 0.032 (at node 8)
Average injected packet rate = 0.0439844
Maximum injected packet rate = 0.058 (at node 13)
Minimum accepted packet rate = 0.032 (at node 1)
Average accepted packet rate = 0.0439531
Maximum accepted packet rate = 0.061 (at node 41)
Minimum injected flit rate = 0.064 (at node 8)
Average injected flit rate = 0.0879375
Maximum injected flit rate = 0.115 (at node 13)
Minimum accepted flit rate = 0.064 (at node 1)
Average accepted flit rate = 0.088
Maximum accepted flit rate = 0.122 (at node 41)
Average injected packet length = 1.99929
Average accepted packet length = 2.00213
Total in-flight flits = 293 (293 measured)
Class 1:
Minimum packet latency = 8
Average packet latency = 51.4873
Maximum packet latency = 453
Minimum network latency = 8
Average network latency = 51.4215
Maximum network latency = 453
Slowest packet = 15024
Minimum flit latency = 7
Average flit latency = 55.0034
Maximum flit latency = 457
Slowest flit = 23466
Minimum fragmentation = 0
Average fragmentation = 0.499023
Maximum fragmentation = 11
Minimum injected packet rate = 0.016 (at node 12)
Average injected packet rate = 0.0254062
Maximum injected packet rate = 0.04 (at node 31)
Minimum accepted packet rate = 0.017 (at node 17)
Average accepted packet rate = 0.0254531
Maximum accepted packet rate = 0.042 (at node 59)
Minimum injected flit rate = 0.032 (at node 12)
Average injected flit rate = 0.0507656
Maximum injected flit rate = 0.08 (at node 31)
Minimum accepted flit rate = 0.034 (at node 17)
Average accepted flit rate = 0.0509375
Maximum accepted flit rate = 0.084 (at node 59)
Average injected packet length = 1.99815
Average accepted packet length = 2.00123
Total in-flight flits = 179 (179 measured)
latency change    = 0.0160687
throughput change = 0.0234375
latency change    = 0.0263947
throughput change = 0.0723926
1
Class 0:
Minimum packet latency = 8
Average packet latency = 50.5807
Maximum packet latency = 461
Minimum network latency = 8
Average network latency = 50.5067
Maximum network latency = 460
Slowest packet = 15464
Minimum flit latency = 7
Average flit latency = 52.361
Maximum flit latency = 482
Slowest flit = 23902
Minimum fragmentation = 0
Average fragmentation = 0.502888
Maximum fragmentation = 14
Minimum injected packet rate = 0.0365 (at node 10)
Average injected packet rate = 0.0443672
Maximum injected packet rate = 0.0535 (at node 13)
Minimum accepted packet rate = 0.0365 (at node 17)
Average accepted packet rate = 0.0444375
Maximum accepted packet rate = 0.0545 (at node 41)
Minimum injected flit rate = 0.073 (at node 10)
Average injected flit rate = 0.08875
Maximum injected flit rate = 0.107 (at node 13)
Minimum accepted flit rate = 0.073 (at node 17)
Average accepted flit rate = 0.0888984
Maximum accepted flit rate = 0.109 (at node 41)
Average injected packet length = 2.00035
Average accepted packet length = 2.00053
Total in-flight flits = 274 (274 measured)
Class 1:
Minimum packet latency = 8
Average packet latency = 51.0969
Maximum packet latency = 453
Minimum network latency = 8
Average network latency = 51.0351
Maximum network latency = 453
Slowest packet = 15024
Minimum flit latency = 7
Average flit latency = 52.203
Maximum flit latency = 457
Slowest flit = 23466
Minimum fragmentation = 0
Average fragmentation = 0.508286
Maximum fragmentation = 11
Minimum injected packet rate = 0.0165 (at node 3)
Average injected packet rate = 0.0250703
Maximum injected packet rate = 0.033 (at node 31)
Minimum accepted packet rate = 0.0175 (at node 24)
Average accepted packet rate = 0.02525
Maximum accepted packet rate = 0.0345 (at node 59)
Minimum injected flit rate = 0.033 (at node 3)
Average injected flit rate = 0.050125
Maximum injected flit rate = 0.066 (at node 31)
Minimum accepted flit rate = 0.0345 (at node 24)
Average accepted flit rate = 0.0505
Maximum accepted flit rate = 0.069 (at node 59)
Average injected packet length = 1.99938
Average accepted packet length = 2
Total in-flight flits = 141 (141 measured)
latency change    = 0.0285504
throughput change = 0.0101063
latency change    = 0.00764077
throughput change = 0.00866337
1
Class 0:
Minimum packet latency = 8
Average packet latency = 49.9835
Maximum packet latency = 461
Minimum network latency = 8
Average network latency = 49.9059
Maximum network latency = 460
Slowest packet = 15464
Minimum flit latency = 7
Average flit latency = 50.6881
Maximum flit latency = 482
Slowest flit = 23902
Minimum fragmentation = 0
Average fragmentation = 0.503661
Maximum fragmentation = 14
Minimum injected packet rate = 0.0396667 (at node 3)
Average injected packet rate = 0.0449792
Maximum injected packet rate = 0.0526667 (at node 60)
Minimum accepted packet rate = 0.0396667 (at node 3)
Average accepted packet rate = 0.044875
Maximum accepted packet rate = 0.0533333 (at node 56)
Minimum injected flit rate = 0.0793333 (at node 3)
Average injected flit rate = 0.0899479
Maximum injected flit rate = 0.105333 (at node 60)
Minimum accepted flit rate = 0.0793333 (at node 3)
Average accepted flit rate = 0.089776
Maximum accepted flit rate = 0.106667 (at node 56)
Average injected packet length = 1.99977
Average accepted packet length = 2.00058
Total in-flight flits = 330 (330 measured)
Class 1:
Minimum packet latency = 8
Average packet latency = 50.4886
Maximum packet latency = 453
Minimum network latency = 8
Average network latency = 50.4264
Maximum network latency = 453
Slowest packet = 15024
Minimum flit latency = 7
Average flit latency = 50.743
Maximum flit latency = 457
Slowest flit = 23466
Minimum fragmentation = 0
Average fragmentation = 0.52398
Maximum fragmentation = 11
Minimum injected packet rate = 0.02 (at node 3)
Average injected packet rate = 0.0251563
Maximum injected packet rate = 0.031 (at node 60)
Minimum accepted packet rate = 0.0203333 (at node 35)
Average accepted packet rate = 0.02525
Maximum accepted packet rate = 0.03 (at node 2)
Minimum injected flit rate = 0.04 (at node 3)
Average injected flit rate = 0.0503073
Maximum injected flit rate = 0.062 (at node 60)
Minimum accepted flit rate = 0.0406667 (at node 35)
Average accepted flit rate = 0.0505208
Maximum accepted flit rate = 0.06 (at node 2)
Average injected packet length = 1.99979
Average accepted packet length = 2.00083
Total in-flight flits = 147 (147 measured)
latency change    = 0.0119483
throughput change = 0.00977548
latency change    = 0.012047
throughput change = 0.000412371
1
Class 0:
Minimum packet latency = 8
Average packet latency = 50.1283
Maximum packet latency = 461
Minimum network latency = 8
Average network latency = 50.0505
Maximum network latency = 460
Slowest packet = 15464
Minimum flit latency = 6
Average flit latency = 50.3266
Maximum flit latency = 482
Slowest flit = 23902
Minimum fragmentation = 0
Average fragmentation = 0.488485
Maximum fragmentation = 14
Minimum injected packet rate = 0.03925 (at node 24)
Average injected packet rate = 0.0449922
Maximum injected packet rate = 0.05125 (at node 49)
Minimum accepted packet rate = 0.03925 (at node 3)
Average accepted packet rate = 0.0450156
Maximum accepted packet rate = 0.0525 (at node 14)
Minimum injected flit rate = 0.07825 (at node 24)
Average injected flit rate = 0.0899727
Maximum injected flit rate = 0.1025 (at node 49)
Minimum accepted flit rate = 0.0785 (at node 3)
Average accepted flit rate = 0.0900352
Maximum accepted flit rate = 0.105 (at node 14)
Average injected packet length = 1.99974
Average accepted packet length = 2.00009
Total in-flight flits = 282 (282 measured)
Class 1:
Minimum packet latency = 8
Average packet latency = 49.9856
Maximum packet latency = 453
Minimum network latency = 8
Average network latency = 49.9228
Maximum network latency = 453
Slowest packet = 15024
Minimum flit latency = 7
Average flit latency = 49.8654
Maximum flit latency = 457
Slowest flit = 23466
Minimum fragmentation = 0
Average fragmentation = 0.50751
Maximum fragmentation = 11
Minimum injected packet rate = 0.02025 (at node 12)
Average injected packet rate = 0.0250352
Maximum injected packet rate = 0.02975 (at node 15)
Minimum accepted packet rate = 0.0205 (at node 33)
Average accepted packet rate = 0.0250742
Maximum accepted packet rate = 0.03 (at node 27)
Minimum injected flit rate = 0.0405 (at node 12)
Average injected flit rate = 0.0500664
Maximum injected flit rate = 0.0595 (at node 15)
Minimum accepted flit rate = 0.041 (at node 33)
Average accepted flit rate = 0.0501523
Maximum accepted flit rate = 0.06 (at node 27)
Average injected packet length = 1.99984
Average accepted packet length = 2.00016
Total in-flight flits = 166 (166 measured)
latency change    = 0.00289005
throughput change = 0.00287793
latency change    = 0.0100635
throughput change = 0.00734741
Draining all recorded packets ...
Draining remaining packets ...
Time taken is 7304 cycles
====== Traffic class 0 ======
Overall minimum packet latency = 8 (1 samples)
Overall average packet latency = 50.5958 (1 samples)
Overall maximum packet latency = 461 (1 samples)
Overall minimum network latency = 8 (1 samples)
Overall average network latency = 50.5177 (1 samples)
Overall maximum network latency = 460 (1 samples)
Overall minimum flit latency = 6 (1 samples)
Overall average flit latency = 50.4767 (1 samples)
Overall maximum flit latency = 482 (1 samples)
Overall minimum fragmentation = 0 (1 samples)
Overall average fragmentation = 0.489408 (1 samples)
Overall maximum fragmentation = 14 (1 samples)
Overall minimum injected packet rate = 0.03925 (1 samples)
Overall average injected packet rate = 0.0449922 (1 samples)
Overall maximum injected packet rate = 0.05125 (1 samples)
Overall minimum accepted packet rate = 0.03925 (1 samples)
Overall average accepted packet rate = 0.0450156 (1 samples)
Overall maximum accepted packet rate = 0.0525 (1 samples)
Overall minimum injected flit rate = 0.07825 (1 samples)
Overall average injected flit rate = 0.0899727 (1 samples)
Overall maximum injected flit rate = 0.1025 (1 samples)
Overall minimum accepted flit rate = 0.0785 (1 samples)
Overall average accepted flit rate = 0.0900352 (1 samples)
Overall maximum accepted flit rate = 0.105 (1 samples)
Overall average injected packet size = 1.99974 (1 samples)
Overall average accepted packet size = 2.00009 (1 samples)
Overall average hops = 6.30682 (1 samples)
====== Traffic class 1 ======
Overall minimum packet latency = 8 (1 samples)
Overall average packet latency = 50.3646 (1 samples)
Overall maximum packet latency = 453 (1 samples)
Overall minimum network latency = 8 (1 samples)
Overall average network latency = 50.3021 (1 samples)
Overall maximum network latency = 453 (1 samples)
Overall minimum flit latency = 7 (1 samples)
Overall average flit latency = 50.0308 (1 samples)
Overall maximum flit latency = 457 (1 samples)
Overall minimum fragmentation = 0 (1 samples)
Overall average fragmentation = 0.508972 (1 samples)
Overall maximum fragmentation = 11 (1 samples)
Overall minimum injected packet rate = 0.02025 (1 samples)
Overall average injected packet rate = 0.0250352 (1 samples)
Overall maximum injected packet rate = 0.02975 (1 samples)
Overall minimum accepted packet rate = 0.0205 (1 samples)
Overall average accepted packet rate = 0.0250742 (1 samples)
Overall maximum accepted packet rate = 0.03 (1 samples)
Overall minimum injected flit rate = 0.0405 (1 samples)
Overall average injected flit rate = 0.0500664 (1 samples)
Overall maximum injected flit rate = 0.0595 (1 samples)
Overall minimum accepted flit rate = 0.041 (1 samples)
Overall average accepted flit rate = 0.0501523 (1 samples)
Overall maximum accepted flit rate = 0.06 (1 samples)
Overall average injected packet size = 1.99984 (1 samples)
Overall average accepted packet size = 2.00016 (1 samples)
Overall average hops = 6.29849 (1 samples)
Total run time 4.97064
