BEGIN Configuration File: ./examples/project_inputs/config-iq_tp-bitcomp_c1ir-0.05_c0ir-0.27_prio-islip
//
// EVC Router Config File -         
//
// Jason Deng, Mike Wang        
//        

//
// Flow control
//

num_vcs     = 5;
vc_buf_size = 6;

wait_for_tail_credit = 0;

vc_allocator = islip;
sw_allocator = islip;
alloc_iters  = 2;

credit_delay   = 2;
routing_delay  = 1;
vc_alloc_delay = 1;
sw_alloc_delay = 1;
st_final_delay = 1;

input_speedup     = 1;
output_speedup    = 1;
internal_speedup  = 1.0;

//
// Traffic
//

sim_type = latency;

warmup_periods = 3;
sample_period  = 1000;
sim_count = 1;

//
//topoogy
//

topology = mesh;
k  = 8;
n  = 2;

//
// Routing
//

router = iq;
routing_function = dor;

packet_size = 2;
use_read_write = 0;

traffic  = bitcomp;
injection_rate = {0.27,0.05};
injection_rate_uses_flits = 1;

classes = 2;
class_priority = {0,0};
priority = class;

noq = 0;
hold_switch_for_packet = 0;
vc_prioritize_empty = 0;

//
// express virtual channel settings
//

evc = 1;
num_evcs = 1;
evc_prioritized_class = 1;
selective_vc_request = 1;
hold_switch_for_evc_packet = 1;
evc_next_route = 1;

END Configuration File: ./examples/project_inputs/config-iq_tp-bitcomp_c1ir-0.05_c0ir-0.27_prio-islip
0
Class 0:
Minimum packet latency = 18
Average packet latency = 161.427
Maximum packet latency = 742
Minimum network latency = 18
Average network latency = 160.386
Maximum network latency = 741
Slowest packet = 2388
Minimum flit latency = 17
Average flit latency = 158.712
Maximum flit latency = 740
Slowest flit = 4776
Minimum fragmentation = 0
Average fragmentation = 1.25296
Maximum fragmentation = 17
Minimum injected packet rate = 0.046 (at node 22)
Average injected packet rate = 0.0968438
Maximum injected packet rate = 0.163 (at node 26)
Minimum accepted packet rate = 0.03 (at node 8)
Average accepted packet rate = 0.0725156
Maximum accepted packet rate = 0.145 (at node 27)
Minimum injected flit rate = 0.092 (at node 22)
Average injected flit rate = 0.193531
Maximum injected flit rate = 0.326 (at node 26)
Minimum accepted flit rate = 0.06 (at node 8)
Average accepted flit rate = 0.14525
Maximum accepted flit rate = 0.291 (at node 27)
Average injected packet length = 1.99839
Average accepted packet length = 2.00302
Total in-flight flits = 3192 (0 measured)
Class 1:
Minimum packet latency = 18
Average packet latency = 167.913
Maximum packet latency = 671
Minimum network latency = 18
Average network latency = 167.22
Maximum network latency = 671
Slowest packet = 2901
Minimum flit latency = 17
Average flit latency = 165.373
Maximum flit latency = 670
Slowest flit = 5802
Minimum fragmentation = 0
Average fragmentation = 1.22494
Maximum fragmentation = 13
Minimum injected packet rate = 0.008 (at node 8)
Average injected packet rate = 0.0220312
Maximum injected packet rate = 0.035 (at node 31)
Minimum accepted packet rate = 0.002 (at node 55)
Average accepted packet rate = 0.0140313
Maximum accepted packet rate = 0.031 (at node 36)
Minimum injected flit rate = 0.016 (at node 8)
Average injected flit rate = 0.0439531
Maximum injected flit rate = 0.069 (at node 31)
Minimum accepted flit rate = 0.004 (at node 55)
Average accepted flit rate = 0.028125
Maximum accepted flit rate = 0.062 (at node 36)
Average injected packet length = 1.99504
Average accepted packet length = 2.00445
Total in-flight flits = 1094 (0 measured)
latency change    = 1
throughput change = 1
latency change    = 1
throughput change = 1
0
Class 0:
Minimum packet latency = 18
Average packet latency = 292.623
Maximum packet latency = 1587
Minimum network latency = 18
Average network latency = 250.216
Maximum network latency = 1587
Slowest packet = 3392
Minimum flit latency = 17
Average flit latency = 248.224
Maximum flit latency = 1586
Slowest flit = 6784
Minimum fragmentation = 0
Average fragmentation = 1.25233
Maximum fragmentation = 17
Minimum injected packet rate = 0.032 (at node 22)
Average injected packet rate = 0.0728359
Maximum injected packet rate = 0.142 (at node 35)
Minimum accepted packet rate = 0.0215 (at node 8)
Average accepted packet rate = 0.0627578
Maximum accepted packet rate = 0.1395 (at node 28)
Minimum injected flit rate = 0.064 (at node 22)
Average injected flit rate = 0.145617
Maximum injected flit rate = 0.284 (at node 35)
Minimum accepted flit rate = 0.043 (at node 8)
Average accepted flit rate = 0.12557
Maximum accepted flit rate = 0.279 (at node 28)
Average injected packet length = 1.99925
Average accepted packet length = 2.00087
Total in-flight flits = 2659 (0 measured)
Class 1:
Minimum packet latency = 18
Average packet latency = 329.319
Maximum packet latency = 1598
Minimum network latency = 18
Average network latency = 310.359
Maximum network latency = 1598
Slowest packet = 3905
Minimum flit latency = 17
Average flit latency = 308.045
Maximum flit latency = 1597
Slowest flit = 7810
Minimum fragmentation = 0
Average fragmentation = 1.17431
Maximum fragmentation = 14
Minimum injected packet rate = 0.007 (at node 8)
Average injected packet rate = 0.0202266
Maximum injected packet rate = 0.0365 (at node 12)
Minimum accepted packet rate = 0.0015 (at node 55)
Average accepted packet rate = 0.0144766
Maximum accepted packet rate = 0.0305 (at node 36)
Minimum injected flit rate = 0.014 (at node 8)
Average injected flit rate = 0.0404297
Maximum injected flit rate = 0.073 (at node 12)
Minimum accepted flit rate = 0.003 (at node 55)
Average accepted flit rate = 0.0289688
Maximum accepted flit rate = 0.061 (at node 36)
Average injected packet length = 1.99884
Average accepted packet length = 2.00108
Total in-flight flits = 1542 (0 measured)
latency change    = 0.448344
throughput change = 0.156722
latency change    = 0.49012
throughput change = 0.0291262
Average latency for class 1 exceeded 500 cycles. Aborting simulation.
Too many sample periods needed to converge
Simulation unstable, ending ...
Total run time 2.25197
