BEGIN Configuration File: ./examples/project_inputs/config-iq_tp-bitcomp_c1ir-0.05_c0ir-0.11_prio-islip
//
// EVC Router Config File -         
//
// Jason Deng, Mike Wang        
//        

//
// Flow control
//

num_vcs     = 5;
vc_buf_size = 6;

wait_for_tail_credit = 0;

vc_allocator = islip;
sw_allocator = islip;
alloc_iters  = 2;

credit_delay   = 2;
routing_delay  = 1;
vc_alloc_delay = 1;
sw_alloc_delay = 1;
st_final_delay = 1;

input_speedup     = 1;
output_speedup    = 1;
internal_speedup  = 1.0;

//
// Traffic
//

sim_type = latency;

warmup_periods = 3;
sample_period  = 1000;
sim_count = 1;

//
//topoogy
//

topology = mesh;
k  = 8;
n  = 2;

//
// Routing
//

router = iq;
routing_function = dor;

packet_size = 2;
use_read_write = 0;

traffic  = bitcomp;
injection_rate = {0.11,0.05};
injection_rate_uses_flits = 1;

classes = 2;
class_priority = {0,0};
priority = class;

noq = 0;
hold_switch_for_packet = 0;
vc_prioritize_empty = 0;

//
// express virtual channel settings
//

evc = 1;
num_evcs = 1;
evc_prioritized_class = 1;
selective_vc_request = 1;
hold_switch_for_evc_packet = 1;
evc_next_route = 1;

END Configuration File: ./examples/project_inputs/config-iq_tp-bitcomp_c1ir-0.05_c0ir-0.11_prio-islip
0
Class 0:
Minimum packet latency = 18
Average packet latency = 50.8928
Maximum packet latency = 113
Minimum network latency = 18
Average network latency = 50.793
Maximum network latency = 110
Slowest packet = 4026
Minimum flit latency = 17
Average flit latency = 49.481
Maximum flit latency = 109
Slowest flit = 8053
Minimum fragmentation = 0
Average fragmentation = 0.547014
Maximum fragmentation = 10
Minimum injected packet rate = 0.038 (at node 60)
Average injected packet rate = 0.0537656
Maximum injected packet rate = 0.076 (at node 35)
Minimum accepted packet rate = 0.034 (at node 3)
Average accepted packet rate = 0.0510156
Maximum accepted packet rate = 0.074 (at node 28)
Minimum injected flit rate = 0.075 (at node 60)
Average injected flit rate = 0.107484
Maximum injected flit rate = 0.152 (at node 35)
Minimum accepted flit rate = 0.068 (at node 3)
Average accepted flit rate = 0.102094
Maximum accepted flit rate = 0.148 (at node 28)
Average injected packet length = 1.99913
Average accepted packet length = 2.00123
Total in-flight flits = 348 (0 measured)
Class 1:
Minimum packet latency = 18
Average packet latency = 50.854
Maximum packet latency = 102
Minimum network latency = 18
Average network latency = 50.8005
Maximum network latency = 102
Slowest packet = 4112
Minimum flit latency = 17
Average flit latency = 49.4401
Maximum flit latency = 101
Slowest flit = 8224
Minimum fragmentation = 0
Average fragmentation = 0.568911
Maximum fragmentation = 8
Minimum injected packet rate = 0.015 (at node 61)
Average injected packet rate = 0.0260625
Maximum injected packet rate = 0.039 (at node 29)
Minimum accepted packet rate = 0.014 (at node 2)
Average accepted packet rate = 0.0248281
Maximum accepted packet rate = 0.038 (at node 34)
Minimum injected flit rate = 0.03 (at node 61)
Average injected flit rate = 0.0521094
Maximum injected flit rate = 0.078 (at node 29)
Minimum accepted flit rate = 0.028 (at node 2)
Average accepted flit rate = 0.0497031
Maximum accepted flit rate = 0.076 (at node 34)
Average injected packet length = 1.9994
Average accepted packet length = 2.00189
Total in-flight flits = 155 (0 measured)
latency change    = 1
throughput change = 1
latency change    = 1
throughput change = 1
0
Class 0:
Minimum packet latency = 18
Average packet latency = 51.0751
Maximum packet latency = 113
Minimum network latency = 18
Average network latency = 50.9784
Maximum network latency = 110
Slowest packet = 4026
Minimum flit latency = 16
Average flit latency = 49.6839
Maximum flit latency = 109
Slowest flit = 8053
Minimum fragmentation = 0
Average fragmentation = 0.520389
Maximum fragmentation = 10
Minimum injected packet rate = 0.0445 (at node 60)
Average injected packet rate = 0.0545
Maximum injected packet rate = 0.0725 (at node 35)
Minimum accepted packet rate = 0.043 (at node 3)
Average accepted packet rate = 0.0530703
Maximum accepted packet rate = 0.0705 (at node 28)
Minimum injected flit rate = 0.089 (at node 60)
Average injected flit rate = 0.108945
Maximum injected flit rate = 0.145 (at node 35)
Minimum accepted flit rate = 0.086 (at node 3)
Average accepted flit rate = 0.106164
Maximum accepted flit rate = 0.141 (at node 28)
Average injected packet length = 1.999
Average accepted packet length = 2.00044
Total in-flight flits = 363 (0 measured)
Class 1:
Minimum packet latency = 18
Average packet latency = 51.3278
Maximum packet latency = 102
Minimum network latency = 18
Average network latency = 51.2701
Maximum network latency = 102
Slowest packet = 4112
Minimum flit latency = 17
Average flit latency = 49.903
Maximum flit latency = 101
Slowest flit = 8224
Minimum fragmentation = 0
Average fragmentation = 0.585465
Maximum fragmentation = 9
Minimum injected packet rate = 0.02 (at node 47)
Average injected packet rate = 0.02575
Maximum injected packet rate = 0.0325 (at node 59)
Minimum accepted packet rate = 0.02 (at node 16)
Average accepted packet rate = 0.0250469
Maximum accepted packet rate = 0.032 (at node 4)
Minimum injected flit rate = 0.04 (at node 47)
Average injected flit rate = 0.0514844
Maximum injected flit rate = 0.065 (at node 59)
Minimum accepted flit rate = 0.04 (at node 16)
Average accepted flit rate = 0.0501016
Maximum accepted flit rate = 0.064 (at node 4)
Average injected packet length = 1.99939
Average accepted packet length = 2.00031
Total in-flight flits = 179 (0 measured)
latency change    = 0.00356876
throughput change = 0.0383398
latency change    = 0.00923138
throughput change = 0.0079526
0
Class 0:
Minimum packet latency = 18
Average packet latency = 51.2713
Maximum packet latency = 98
Minimum network latency = 18
Average network latency = 51.1837
Maximum network latency = 98
Slowest packet = 13264
Minimum flit latency = 16
Average flit latency = 49.8732
Maximum flit latency = 97
Slowest flit = 26528
Minimum fragmentation = 0
Average fragmentation = 0.53495
Maximum fragmentation = 10
Minimum injected packet rate = 0.037 (at node 51)
Average injected packet rate = 0.0546094
Maximum injected packet rate = 0.072 (at node 34)
Minimum accepted packet rate = 0.037 (at node 12)
Average accepted packet rate = 0.0547656
Maximum accepted packet rate = 0.071 (at node 31)
Minimum injected flit rate = 0.074 (at node 51)
Average injected flit rate = 0.109313
Maximum injected flit rate = 0.145 (at node 57)
Minimum accepted flit rate = 0.074 (at node 12)
Average accepted flit rate = 0.109531
Maximum accepted flit rate = 0.142 (at node 31)
Average injected packet length = 2.00172
Average accepted packet length = 2
Total in-flight flits = 343 (0 measured)
Class 1:
Minimum packet latency = 18
Average packet latency = 51.695
Maximum packet latency = 96
Minimum network latency = 18
Average network latency = 51.6394
Maximum network latency = 96
Slowest packet = 9920
Minimum flit latency = 17
Average flit latency = 50.282
Maximum flit latency = 95
Slowest flit = 19984
Minimum fragmentation = 0
Average fragmentation = 0.537084
Maximum fragmentation = 8
Minimum injected packet rate = 0.016 (at node 44)
Average injected packet rate = 0.0241875
Maximum injected packet rate = 0.035 (at node 53)
Minimum accepted packet rate = 0.017 (at node 25)
Average accepted packet rate = 0.0244375
Maximum accepted packet rate = 0.035 (at node 61)
Minimum injected flit rate = 0.032 (at node 44)
Average injected flit rate = 0.0484062
Maximum injected flit rate = 0.07 (at node 53)
Minimum accepted flit rate = 0.034 (at node 25)
Average accepted flit rate = 0.048875
Maximum accepted flit rate = 0.07 (at node 61)
Average injected packet length = 2.00129
Average accepted packet length = 2
Total in-flight flits = 147 (0 measured)
latency change    = 0.00382766
throughput change = 0.0307418
latency change    = 0.00710301
throughput change = 0.0250959
Warmed up ...Time used is 3000 cycles
1
Class 0:
Minimum packet latency = 18
Average packet latency = 50.9521
Maximum packet latency = 94
Minimum network latency = 18
Average network latency = 50.8531
Maximum network latency = 94
Slowest packet = 17272
Minimum flit latency = 17
Average flit latency = 49.835
Maximum flit latency = 93
Slowest flit = 34544
Minimum fragmentation = 0
Average fragmentation = 0.560739
Maximum fragmentation = 11
Minimum injected packet rate = 0.039 (at node 9)
Average injected packet rate = 0.0546563
Maximum injected packet rate = 0.077 (at node 52)
Minimum accepted packet rate = 0.039 (at node 54)
Average accepted packet rate = 0.0542813
Maximum accepted packet rate = 0.074 (at node 11)
Minimum injected flit rate = 0.077 (at node 9)
Average injected flit rate = 0.109281
Maximum injected flit rate = 0.154 (at node 52)
Minimum accepted flit rate = 0.077 (at node 54)
Average accepted flit rate = 0.108641
Maximum accepted flit rate = 0.149 (at node 11)
Average injected packet length = 1.99943
Average accepted packet length = 2.00144
Total in-flight flits = 386 (386 measured)
Class 1:
Minimum packet latency = 18
Average packet latency = 51.6802
Maximum packet latency = 96
Minimum network latency = 18
Average network latency = 51.6211
Maximum network latency = 95
Slowest packet = 17479
Minimum flit latency = 16
Average flit latency = 50.4334
Maximum flit latency = 94
Slowest flit = 34958
Minimum fragmentation = 0
Average fragmentation = 0.567301
Maximum fragmentation = 11
Minimum injected packet rate = 0.013 (at node 54)
Average injected packet rate = 0.0253906
Maximum injected packet rate = 0.038 (at node 7)
Minimum accepted packet rate = 0.015 (at node 9)
Average accepted packet rate = 0.0249531
Maximum accepted packet rate = 0.038 (at node 56)
Minimum injected flit rate = 0.026 (at node 54)
Average injected flit rate = 0.0507187
Maximum injected flit rate = 0.076 (at node 7)
Minimum accepted flit rate = 0.03 (at node 9)
Average accepted flit rate = 0.0499687
Maximum accepted flit rate = 0.076 (at node 56)
Average injected packet length = 1.99754
Average accepted packet length = 2.0025
Total in-flight flits = 199 (199 measured)
latency change    = 0.00626453
throughput change = 0.0081979
latency change    = 0.00028592
throughput change = 0.0218887
1
Class 0:
Minimum packet latency = 18
Average packet latency = 51.1563
Maximum packet latency = 99
Minimum network latency = 18
Average network latency = 51.061
Maximum network latency = 99
Slowest packet = 20223
Minimum flit latency = 17
Average flit latency = 49.8994
Maximum flit latency = 98
Slowest flit = 49210
Minimum fragmentation = 0
Average fragmentation = 0.551344
Maximum fragmentation = 11
Minimum injected packet rate = 0.0415 (at node 43)
Average injected packet rate = 0.0546484
Maximum injected packet rate = 0.0685 (at node 53)
Minimum accepted packet rate = 0.0415 (at node 20)
Average accepted packet rate = 0.0545313
Maximum accepted packet rate = 0.0655 (at node 30)
Minimum injected flit rate = 0.083 (at node 43)
Average injected flit rate = 0.109289
Maximum injected flit rate = 0.137 (at node 53)
Minimum accepted flit rate = 0.083 (at node 20)
Average accepted flit rate = 0.109063
Maximum accepted flit rate = 0.1315 (at node 30)
Average injected packet length = 1.99986
Average accepted packet length = 2
Total in-flight flits = 373 (373 measured)
Class 1:
Minimum packet latency = 18
Average packet latency = 52.1312
Maximum packet latency = 96
Minimum network latency = 18
Average network latency = 52.067
Maximum network latency = 95
Slowest packet = 17479
Minimum flit latency = 16
Average flit latency = 50.7814
Maximum flit latency = 94
Slowest flit = 34958
Minimum fragmentation = 0
Average fragmentation = 0.566847
Maximum fragmentation = 11
Minimum injected packet rate = 0.0185 (at node 41)
Average injected packet rate = 0.0251719
Maximum injected packet rate = 0.035 (at node 7)
Minimum accepted packet rate = 0.018 (at node 22)
Average accepted packet rate = 0.0251797
Maximum accepted packet rate = 0.0345 (at node 56)
Minimum injected flit rate = 0.037 (at node 41)
Average injected flit rate = 0.0503203
Maximum injected flit rate = 0.0695 (at node 7)
Minimum accepted flit rate = 0.036 (at node 22)
Average accepted flit rate = 0.0503906
Maximum accepted flit rate = 0.069 (at node 56)
Average injected packet length = 1.99907
Average accepted packet length = 2.00124
Total in-flight flits = 141 (141 measured)
latency change    = 0.00399118
throughput change = 0.00386819
latency change    = 0.00864965
throughput change = 0.00837209
1
Class 0:
Minimum packet latency = 18
Average packet latency = 51.2498
Maximum packet latency = 108
Minimum network latency = 18
Average network latency = 51.1499
Maximum network latency = 108
Slowest packet = 29920
Minimum flit latency = 17
Average flit latency = 49.9355
Maximum flit latency = 107
Slowest flit = 59840
Minimum fragmentation = 0
Average fragmentation = 0.54814
Maximum fragmentation = 11
Minimum injected packet rate = 0.0423333 (at node 39)
Average injected packet rate = 0.054625
Maximum injected packet rate = 0.0633333 (at node 22)
Minimum accepted packet rate = 0.0426667 (at node 24)
Average accepted packet rate = 0.0545104
Maximum accepted packet rate = 0.0636667 (at node 41)
Minimum injected flit rate = 0.0846667 (at node 39)
Average injected flit rate = 0.109234
Maximum injected flit rate = 0.126667 (at node 22)
Minimum accepted flit rate = 0.0853333 (at node 24)
Average accepted flit rate = 0.109068
Maximum accepted flit rate = 0.127333 (at node 41)
Average injected packet length = 1.99971
Average accepted packet length = 2.00086
Total in-flight flits = 378 (378 measured)
Class 1:
Minimum packet latency = 18
Average packet latency = 51.9376
Maximum packet latency = 96
Minimum network latency = 18
Average network latency = 51.8739
Maximum network latency = 95
Slowest packet = 17479
Minimum flit latency = 16
Average flit latency = 50.5712
Maximum flit latency = 94
Slowest flit = 34958
Minimum fragmentation = 0
Average fragmentation = 0.556669
Maximum fragmentation = 11
Minimum injected packet rate = 0.02 (at node 4)
Average injected packet rate = 0.0254687
Maximum injected packet rate = 0.0336667 (at node 39)
Minimum accepted packet rate = 0.0203333 (at node 19)
Average accepted packet rate = 0.0253385
Maximum accepted packet rate = 0.0336667 (at node 24)
Minimum injected flit rate = 0.04 (at node 4)
Average injected flit rate = 0.0509323
Maximum injected flit rate = 0.0673333 (at node 39)
Minimum accepted flit rate = 0.0406667 (at node 19)
Average accepted flit rate = 0.0506875
Maximum accepted flit rate = 0.0673333 (at node 24)
Average injected packet length = 1.9998
Average accepted packet length = 2.00041
Total in-flight flits = 195 (195 measured)
latency change    = 0.00182385
throughput change = 4.77532e-05
latency change    = 0.00372681
throughput change = 0.00585697
Draining all recorded packets ...
Draining remaining packets ...
Time taken is 6170 cycles
====== Traffic class 0 ======
Overall minimum packet latency = 18 (1 samples)
Overall average packet latency = 51.3671 (1 samples)
Overall maximum packet latency = 108 (1 samples)
Overall minimum network latency = 18 (1 samples)
Overall average network latency = 51.2663 (1 samples)
Overall maximum network latency = 108 (1 samples)
Overall minimum flit latency = 17 (1 samples)
Overall average flit latency = 50.0155 (1 samples)
Overall maximum flit latency = 107 (1 samples)
Overall minimum fragmentation = 0 (1 samples)
Overall average fragmentation = 0.555301 (1 samples)
Overall maximum fragmentation = 11 (1 samples)
Overall minimum injected packet rate = 0.0423333 (1 samples)
Overall average injected packet rate = 0.054625 (1 samples)
Overall maximum injected packet rate = 0.0633333 (1 samples)
Overall minimum accepted packet rate = 0.0426667 (1 samples)
Overall average accepted packet rate = 0.0545104 (1 samples)
Overall maximum accepted packet rate = 0.0636667 (1 samples)
Overall minimum injected flit rate = 0.0846667 (1 samples)
Overall average injected flit rate = 0.109234 (1 samples)
Overall maximum injected flit rate = 0.126667 (1 samples)
Overall minimum accepted flit rate = 0.0853333 (1 samples)
Overall average accepted flit rate = 0.109068 (1 samples)
Overall maximum accepted flit rate = 0.127333 (1 samples)
Overall average injected packet size = 1.99971 (1 samples)
Overall average accepted packet size = 2.00086 (1 samples)
Overall average hops = 8.9529 (1 samples)
====== Traffic class 1 ======
Overall minimum packet latency = 18 (1 samples)
Overall average packet latency = 52.0691 (1 samples)
Overall maximum packet latency = 97 (1 samples)
Overall minimum network latency = 18 (1 samples)
Overall average network latency = 52.0047 (1 samples)
Overall maximum network latency = 97 (1 samples)
Overall minimum flit latency = 16 (1 samples)
Overall average flit latency = 50.6701 (1 samples)
Overall maximum flit latency = 96 (1 samples)
Overall minimum fragmentation = 0 (1 samples)
Overall average fragmentation = 0.558896 (1 samples)
Overall maximum fragmentation = 11 (1 samples)
Overall minimum injected packet rate = 0.02 (1 samples)
Overall average injected packet rate = 0.0254687 (1 samples)
Overall maximum injected packet rate = 0.0336667 (1 samples)
Overall minimum accepted packet rate = 0.0203333 (1 samples)
Overall average accepted packet rate = 0.0253385 (1 samples)
Overall maximum accepted packet rate = 0.0336667 (1 samples)
Overall minimum injected flit rate = 0.04 (1 samples)
Overall average injected flit rate = 0.0509323 (1 samples)
Overall maximum injected flit rate = 0.0673333 (1 samples)
Overall minimum accepted flit rate = 0.0406667 (1 samples)
Overall average accepted flit rate = 0.0506875 (1 samples)
Overall maximum accepted flit rate = 0.0673333 (1 samples)
Overall average injected packet size = 1.9998 (1 samples)
Overall average accepted packet size = 2.00041 (1 samples)
Overall average hops = 9.09366 (1 samples)
Total run time 5.9195
