BEGIN Configuration File: ./examples/project_inputs/config-iq_tp-transpose_c1ir-0.05_c0ir-0.07_prio-islip
//
// EVC Router Config File -         
//
// Jason Deng, Mike Wang        
//        

//
// Flow control
//

num_vcs     = 5;
vc_buf_size = 6;

wait_for_tail_credit = 0;

vc_allocator = islip;
sw_allocator = islip;
alloc_iters  = 2;

credit_delay   = 2;
routing_delay  = 1;
vc_alloc_delay = 1;
sw_alloc_delay = 1;
st_final_delay = 1;

input_speedup     = 1;
output_speedup    = 1;
internal_speedup  = 1.0;

//
// Traffic
//

sim_type = latency;

warmup_periods = 3;
sample_period  = 1000;
sim_count = 1;

//
//topoogy
//

topology = mesh;
k  = 8;
n  = 2;

//
// Routing
//

router = iq;
routing_function = dor;

packet_size = 2;
use_read_write = 0;

traffic  = transpose;
injection_rate = {0.07,0.05};
injection_rate_uses_flits = 1;

classes = 2;
class_priority = {0,0};
priority = class;

noq = 0;
hold_switch_for_packet = 0;
vc_prioritize_empty = 0;

//
// express virtual channel settings
//

evc = 1;
num_evcs = 1;
evc_prioritized_class = 1;
selective_vc_request = 1;
hold_switch_for_evc_packet = 1;
evc_next_route = 1;

END Configuration File: ./examples/project_inputs/config-iq_tp-transpose_c1ir-0.05_c0ir-0.07_prio-islip
0
Class 0:
Minimum packet latency = 8
Average packet latency = 36.6969
Maximum packet latency = 119
Minimum network latency = 8
Average network latency = 36.6276
Maximum network latency = 118
Slowest packet = 1259
Minimum flit latency = 7
Average flit latency = 35.4181
Maximum flit latency = 117
Slowest flit = 2518
Minimum fragmentation = 0
Average fragmentation = 0.362281
Maximum fragmentation = 7
Minimum injected packet rate = 0.025 (at node 42)
Average injected packet rate = 0.0368125
Maximum injected packet rate = 0.053 (at node 2)
Minimum accepted packet rate = 0.024 (at node 21)
Average accepted packet rate = 0.035625
Maximum accepted packet rate = 0.052 (at node 9)
Minimum injected flit rate = 0.05 (at node 42)
Average injected flit rate = 0.0735781
Maximum injected flit rate = 0.106 (at node 2)
Minimum accepted flit rate = 0.048 (at node 21)
Average accepted flit rate = 0.0713125
Maximum accepted flit rate = 0.104 (at node 9)
Average injected packet length = 1.99873
Average accepted packet length = 2.00175
Total in-flight flits = 148 (0 measured)
Class 1:
Minimum packet latency = 8
Average packet latency = 36.5565
Maximum packet latency = 114
Minimum network latency = 8
Average network latency = 36.4839
Maximum network latency = 113
Slowest packet = 1463
Minimum flit latency = 7
Average flit latency = 35.2592
Maximum flit latency = 111
Slowest flit = 2926
Minimum fragmentation = 0
Average fragmentation = 0.363575
Maximum fragmentation = 8
Minimum injected packet rate = 0.011 (at node 47)
Average injected packet rate = 0.0241563
Maximum injected packet rate = 0.039 (at node 54)
Minimum accepted packet rate = 0.011 (at node 61)
Average accepted packet rate = 0.02325
Maximum accepted packet rate = 0.039 (at node 54)
Minimum injected flit rate = 0.022 (at node 47)
Average injected flit rate = 0.0482969
Maximum injected flit rate = 0.078 (at node 54)
Minimum accepted flit rate = 0.022 (at node 61)
Average accepted flit rate = 0.0465313
Maximum accepted flit rate = 0.078 (at node 54)
Average injected packet length = 1.99935
Average accepted packet length = 2.00134
Total in-flight flits = 114 (0 measured)
latency change    = 1
throughput change = 1
latency change    = 1
throughput change = 1
0
Class 0:
Minimum packet latency = 8
Average packet latency = 36.948
Maximum packet latency = 136
Minimum network latency = 8
Average network latency = 36.8762
Maximum network latency = 135
Slowest packet = 6514
Minimum flit latency = 7
Average flit latency = 35.6737
Maximum flit latency = 134
Slowest flit = 13028
Minimum fragmentation = 0
Average fragmentation = 0.354917
Maximum fragmentation = 9
Minimum injected packet rate = 0.03 (at node 30)
Average injected packet rate = 0.0361797
Maximum injected packet rate = 0.05 (at node 23)
Minimum accepted packet rate = 0.03 (at node 6)
Average accepted packet rate = 0.0355938
Maximum accepted packet rate = 0.048 (at node 16)
Minimum injected flit rate = 0.06 (at node 30)
Average injected flit rate = 0.0723281
Maximum injected flit rate = 0.0995 (at node 23)
Minimum accepted flit rate = 0.06 (at node 21)
Average accepted flit rate = 0.0712109
Maximum accepted flit rate = 0.096 (at node 16)
Average injected packet length = 1.99914
Average accepted packet length = 2.00066
Total in-flight flits = 147 (0 measured)
Class 1:
Minimum packet latency = 8
Average packet latency = 37.1969
Maximum packet latency = 126
Minimum network latency = 8
Average network latency = 37.1307
Maximum network latency = 126
Slowest packet = 6562
Minimum flit latency = 7
Average flit latency = 35.895
Maximum flit latency = 125
Slowest flit = 13124
Minimum fragmentation = 0
Average fragmentation = 0.373981
Maximum fragmentation = 8
Minimum injected packet rate = 0.016 (at node 47)
Average injected packet rate = 0.0244453
Maximum injected packet rate = 0.033 (at node 2)
Minimum accepted packet rate = 0.016 (at node 61)
Average accepted packet rate = 0.0239609
Maximum accepted packet rate = 0.032 (at node 16)
Minimum injected flit rate = 0.032 (at node 47)
Average injected flit rate = 0.0488906
Maximum injected flit rate = 0.066 (at node 2)
Minimum accepted flit rate = 0.032 (at node 61)
Average accepted flit rate = 0.0479297
Maximum accepted flit rate = 0.064 (at node 16)
Average injected packet length = 2
Average accepted packet length = 2.00033
Total in-flight flits = 123 (0 measured)
latency change    = 0.00679471
throughput change = 0.00142622
latency change    = 0.0172187
throughput change = 0.0291769
0
Class 0:
Minimum packet latency = 8
Average packet latency = 37.1844
Maximum packet latency = 112
Minimum network latency = 8
Average network latency = 37.122
Maximum network latency = 112
Slowest packet = 9008
Minimum flit latency = 7
Average flit latency = 35.8854
Maximum flit latency = 111
Slowest flit = 18016
Minimum fragmentation = 0
Average fragmentation = 0.354722
Maximum fragmentation = 5
Minimum injected packet rate = 0.023 (at node 19)
Average injected packet rate = 0.0347656
Maximum injected packet rate = 0.048 (at node 13)
Minimum accepted packet rate = 0.023 (at node 26)
Average accepted packet rate = 0.0345781
Maximum accepted packet rate = 0.047 (at node 41)
Minimum injected flit rate = 0.046 (at node 19)
Average injected flit rate = 0.0695937
Maximum injected flit rate = 0.096 (at node 13)
Minimum accepted flit rate = 0.046 (at node 26)
Average accepted flit rate = 0.0691563
Maximum accepted flit rate = 0.094 (at node 41)
Average injected packet length = 2.0018
Average accepted packet length = 2
Total in-flight flits = 171 (0 measured)
Class 1:
Minimum packet latency = 8
Average packet latency = 37.0455
Maximum packet latency = 113
Minimum network latency = 8
Average network latency = 37.0006
Maximum network latency = 113
Slowest packet = 8946
Minimum flit latency = 7
Average flit latency = 35.7462
Maximum flit latency = 112
Slowest flit = 17892
Minimum fragmentation = 0
Average fragmentation = 0.383483
Maximum fragmentation = 8
Minimum injected packet rate = 0.014 (at node 44)
Average injected packet rate = 0.0244063
Maximum injected packet rate = 0.038 (at node 21)
Minimum accepted packet rate = 0.014 (at node 37)
Average accepted packet rate = 0.0244063
Maximum accepted packet rate = 0.036 (at node 42)
Minimum injected flit rate = 0.028 (at node 44)
Average injected flit rate = 0.0488125
Maximum injected flit rate = 0.076 (at node 21)
Minimum accepted flit rate = 0.028 (at node 37)
Average accepted flit rate = 0.0488281
Maximum accepted flit rate = 0.072 (at node 42)
Average injected packet length = 2
Average accepted packet length = 2.00064
Total in-flight flits = 122 (0 measured)
latency change    = 0.00635709
throughput change = 0.0297108
latency change    = 0.00408905
throughput change = 0.0184
Warmed up ...Time used is 3000 cycles
1
Class 0:
Minimum packet latency = 8
Average packet latency = 36.5267
Maximum packet latency = 114
Minimum network latency = 8
Average network latency = 36.4564
Maximum network latency = 114
Slowest packet = 13266
Minimum flit latency = 6
Average flit latency = 35.6156
Maximum flit latency = 113
Slowest flit = 26532
Minimum fragmentation = 0
Average fragmentation = 0.345363
Maximum fragmentation = 7
Minimum injected packet rate = 0.024 (at node 28)
Average injected packet rate = 0.0353438
Maximum injected packet rate = 0.046 (at node 0)
Minimum accepted packet rate = 0.024 (at node 35)
Average accepted packet rate = 0.0355625
Maximum accepted packet rate = 0.048 (at node 23)
Minimum injected flit rate = 0.048 (at node 28)
Average injected flit rate = 0.0706719
Maximum injected flit rate = 0.092 (at node 0)
Minimum accepted flit rate = 0.048 (at node 35)
Average accepted flit rate = 0.0711406
Maximum accepted flit rate = 0.096 (at node 23)
Average injected packet length = 1.99956
Average accepted packet length = 2.00044
Total in-flight flits = 144 (144 measured)
Class 1:
Minimum packet latency = 8
Average packet latency = 36.5212
Maximum packet latency = 106
Minimum network latency = 8
Average network latency = 36.4704
Maximum network latency = 106
Slowest packet = 13217
Minimum flit latency = 7
Average flit latency = 35.7197
Maximum flit latency = 105
Slowest flit = 26434
Minimum fragmentation = 0
Average fragmentation = 0.390103
Maximum fragmentation = 6
Minimum injected packet rate = 0.012 (at node 58)
Average injected packet rate = 0.0253594
Maximum injected packet rate = 0.037 (at node 27)
Minimum accepted packet rate = 0.012 (at node 23)
Average accepted packet rate = 0.0252813
Maximum accepted packet rate = 0.037 (at node 27)
Minimum injected flit rate = 0.024 (at node 58)
Average injected flit rate = 0.0506562
Maximum injected flit rate = 0.074 (at node 27)
Minimum accepted flit rate = 0.024 (at node 23)
Average accepted flit rate = 0.0505625
Maximum accepted flit rate = 0.074 (at node 27)
Average injected packet length = 1.99754
Average accepted packet length = 2
Total in-flight flits = 132 (132 measured)
latency change    = 0.0180044
throughput change = 0.0278937
latency change    = 0.0143546
throughput change = 0.0343016
1
Class 0:
Minimum packet latency = 8
Average packet latency = 36.3666
Maximum packet latency = 116
Minimum network latency = 8
Average network latency = 36.2994
Maximum network latency = 116
Slowest packet = 18698
Minimum flit latency = 6
Average flit latency = 35.2833
Maximum flit latency = 115
Slowest flit = 37396
Minimum fragmentation = 0
Average fragmentation = 0.343673
Maximum fragmentation = 7
Minimum injected packet rate = 0.026 (at node 22)
Average injected packet rate = 0.0352891
Maximum injected packet rate = 0.045 (at node 18)
Minimum accepted packet rate = 0.0265 (at node 50)
Average accepted packet rate = 0.0354375
Maximum accepted packet rate = 0.0465 (at node 39)
Minimum injected flit rate = 0.052 (at node 22)
Average injected flit rate = 0.0705547
Maximum injected flit rate = 0.09 (at node 18)
Minimum accepted flit rate = 0.053 (at node 50)
Average accepted flit rate = 0.0708672
Maximum accepted flit rate = 0.093 (at node 39)
Average injected packet length = 1.99934
Average accepted packet length = 1.99978
Total in-flight flits = 134 (134 measured)
Class 1:
Minimum packet latency = 8
Average packet latency = 36.7471
Maximum packet latency = 107
Minimum network latency = 8
Average network latency = 36.6934
Maximum network latency = 107
Slowest packet = 18376
Minimum flit latency = 7
Average flit latency = 35.7107
Maximum flit latency = 106
Slowest flit = 36752
Minimum fragmentation = 0
Average fragmentation = 0.367502
Maximum fragmentation = 6
Minimum injected packet rate = 0.0175 (at node 12)
Average injected packet rate = 0.0250391
Maximum injected packet rate = 0.0315 (at node 50)
Minimum accepted packet rate = 0.017 (at node 33)
Average accepted packet rate = 0.0251016
Maximum accepted packet rate = 0.0315 (at node 22)
Minimum injected flit rate = 0.035 (at node 12)
Average injected flit rate = 0.0500781
Maximum injected flit rate = 0.063 (at node 50)
Minimum accepted flit rate = 0.034 (at node 33)
Average accepted flit rate = 0.0501953
Maximum accepted flit rate = 0.063 (at node 22)
Average injected packet length = 2
Average accepted packet length = 1.99969
Total in-flight flits = 107 (107 measured)
latency change    = 0.00440309
throughput change = 0.00385845
latency change    = 0.00614624
throughput change = 0.00731518
1
Class 0:
Minimum packet latency = 8
Average packet latency = 36.5373
Maximum packet latency = 116
Minimum network latency = 8
Average network latency = 36.4701
Maximum network latency = 116
Slowest packet = 18698
Minimum flit latency = 6
Average flit latency = 35.3803
Maximum flit latency = 115
Slowest flit = 37396
Minimum fragmentation = 0
Average fragmentation = 0.35265
Maximum fragmentation = 8
Minimum injected packet rate = 0.0276667 (at node 12)
Average injected packet rate = 0.0353125
Maximum injected packet rate = 0.0436667 (at node 43)
Minimum accepted packet rate = 0.028 (at node 33)
Average accepted packet rate = 0.0352344
Maximum accepted packet rate = 0.0443333 (at node 22)
Minimum injected flit rate = 0.0553333 (at node 12)
Average injected flit rate = 0.0706094
Maximum injected flit rate = 0.0873333 (at node 43)
Minimum accepted flit rate = 0.056 (at node 33)
Average accepted flit rate = 0.0704687
Maximum accepted flit rate = 0.0886667 (at node 22)
Average injected packet length = 1.99956
Average accepted packet length = 2
Total in-flight flits = 201 (201 measured)
Class 1:
Minimum packet latency = 8
Average packet latency = 36.8051
Maximum packet latency = 107
Minimum network latency = 8
Average network latency = 36.7531
Maximum network latency = 107
Slowest packet = 18376
Minimum flit latency = 7
Average flit latency = 35.6855
Maximum flit latency = 106
Slowest flit = 36752
Minimum fragmentation = 0
Average fragmentation = 0.366235
Maximum fragmentation = 7
Minimum injected packet rate = 0.019 (at node 58)
Average injected packet rate = 0.0252917
Maximum injected packet rate = 0.033 (at node 60)
Minimum accepted packet rate = 0.019 (at node 23)
Average accepted packet rate = 0.0252813
Maximum accepted packet rate = 0.033 (at node 39)
Minimum injected flit rate = 0.038 (at node 58)
Average injected flit rate = 0.0505781
Maximum injected flit rate = 0.066 (at node 60)
Minimum accepted flit rate = 0.038 (at node 23)
Average accepted flit rate = 0.0505521
Maximum accepted flit rate = 0.066 (at node 39)
Average injected packet length = 1.99979
Average accepted packet length = 1.99959
Total in-flight flits = 128 (128 measured)
latency change    = 0.00467159
throughput change = 0.0056541
latency change    = 0.00157661
throughput change = 0.00705749
Draining all recorded packets ...
Draining remaining packets ...
Time taken is 6159 cycles
====== Traffic class 0 ======
Overall minimum packet latency = 8 (1 samples)
Overall average packet latency = 36.7299 (1 samples)
Overall maximum packet latency = 116 (1 samples)
Overall minimum network latency = 8 (1 samples)
Overall average network latency = 36.6617 (1 samples)
Overall maximum network latency = 116 (1 samples)
Overall minimum flit latency = 6 (1 samples)
Overall average flit latency = 35.5777 (1 samples)
Overall maximum flit latency = 115 (1 samples)
Overall minimum fragmentation = 0 (1 samples)
Overall average fragmentation = 0.355162 (1 samples)
Overall maximum fragmentation = 9 (1 samples)
Overall minimum injected packet rate = 0.0276667 (1 samples)
Overall average injected packet rate = 0.0353125 (1 samples)
Overall maximum injected packet rate = 0.0436667 (1 samples)
Overall minimum accepted packet rate = 0.028 (1 samples)
Overall average accepted packet rate = 0.0352344 (1 samples)
Overall maximum accepted packet rate = 0.0443333 (1 samples)
Overall minimum injected flit rate = 0.0553333 (1 samples)
Overall average injected flit rate = 0.0706094 (1 samples)
Overall maximum injected flit rate = 0.0873333 (1 samples)
Overall minimum accepted flit rate = 0.056 (1 samples)
Overall average accepted flit rate = 0.0704687 (1 samples)
Overall maximum accepted flit rate = 0.0886667 (1 samples)
Overall average injected packet size = 1.99956 (1 samples)
Overall average accepted packet size = 2 (1 samples)
Overall average hops = 6.24218 (1 samples)
====== Traffic class 1 ======
Overall minimum packet latency = 8 (1 samples)
Overall average packet latency = 36.9671 (1 samples)
Overall maximum packet latency = 107 (1 samples)
Overall minimum network latency = 8 (1 samples)
Overall average network latency = 36.9143 (1 samples)
Overall maximum network latency = 107 (1 samples)
Overall minimum flit latency = 7 (1 samples)
Overall average flit latency = 35.7715 (1 samples)
Overall maximum flit latency = 106 (1 samples)
Overall minimum fragmentation = 0 (1 samples)
Overall average fragmentation = 0.367586 (1 samples)
Overall maximum fragmentation = 7 (1 samples)
Overall minimum injected packet rate = 0.019 (1 samples)
Overall average injected packet rate = 0.0252917 (1 samples)
Overall maximum injected packet rate = 0.033 (1 samples)
Overall minimum accepted packet rate = 0.019 (1 samples)
Overall average accepted packet rate = 0.0252813 (1 samples)
Overall maximum accepted packet rate = 0.033 (1 samples)
Overall minimum injected flit rate = 0.038 (1 samples)
Overall average injected flit rate = 0.0505781 (1 samples)
Overall maximum injected flit rate = 0.066 (1 samples)
Overall minimum accepted flit rate = 0.038 (1 samples)
Overall average accepted flit rate = 0.0505521 (1 samples)
Overall maximum accepted flit rate = 0.066 (1 samples)
Overall average injected packet size = 1.99979 (1 samples)
Overall average accepted packet size = 1.99959 (1 samples)
Overall average hops = 6.28089 (1 samples)
Total run time 3.67321
