BEGIN Configuration File: ./examples/project_inputs/config-iq_tp-uniform_c1ir-0.05_c0ir-0.05_prio-islip
//
// EVC Router Config File -         
//
// Jason Deng, Mike Wang        
//        

//
// Flow control
//

num_vcs     = 5;
vc_buf_size = 6;

wait_for_tail_credit = 0;

vc_allocator = islip;
sw_allocator = islip;
alloc_iters  = 2;

credit_delay   = 2;
routing_delay  = 1;
vc_alloc_delay = 1;
sw_alloc_delay = 1;
st_final_delay = 1;

input_speedup     = 1;
output_speedup    = 1;
internal_speedup  = 1.0;

//
// Traffic
//

sim_type = latency;

warmup_periods = 3;
sample_period  = 1000;
sim_count = 1;

//
//topoogy
//

topology = mesh;
k  = 8;
n  = 2;

//
// Routing
//

router = iq;
routing_function = dor;

packet_size = 2;
use_read_write = 0;

traffic  = uniform;
injection_rate = {0.05,0.05};
injection_rate_uses_flits = 1;

classes = 2;
class_priority = {0,0};
priority = class;

noq = 0;
hold_switch_for_packet = 0;
vc_prioritize_empty = 0;

//
// express virtual channel settings
//

evc = 1;
num_evcs = 1;
evc_prioritized_class = 1;
selective_vc_request = 1;
hold_switch_for_evc_packet = 1;
evc_next_route = 1;

END Configuration File: ./examples/project_inputs/config-iq_tp-uniform_c1ir-0.05_c0ir-0.05_prio-islip
0
Class 0:
Minimum packet latency = 8
Average packet latency = 34.7233
Maximum packet latency = 80
Minimum network latency = 8
Average network latency = 34.6733
Maximum network latency = 80
Slowest packet = 1550
Minimum flit latency = 7
Average flit latency = 33.5092
Maximum flit latency = 79
Slowest flit = 3101
Minimum fragmentation = 0
Average fragmentation = 0.247345
Maximum fragmentation = 5
Minimum injected packet rate = 0.015 (at node 23)
Average injected packet rate = 0.0259844
Maximum injected packet rate = 0.038 (at node 18)
Minimum accepted packet rate = 0.015 (at node 17)
Average accepted packet rate = 0.0250156
Maximum accepted packet rate = 0.035 (at node 24)
Minimum injected flit rate = 0.03 (at node 23)
Average injected flit rate = 0.0519375
Maximum injected flit rate = 0.076 (at node 18)
Minimum accepted flit rate = 0.03 (at node 17)
Average accepted flit rate = 0.0500469
Maximum accepted flit rate = 0.07 (at node 24)
Average injected packet length = 1.9988
Average accepted packet length = 2.00062
Total in-flight flits = 123 (0 measured)
Class 1:
Minimum packet latency = 8
Average packet latency = 34.8137
Maximum packet latency = 75
Minimum network latency = 8
Average network latency = 34.762
Maximum network latency = 75
Slowest packet = 2364
Minimum flit latency = 7
Average flit latency = 33.5913
Maximum flit latency = 74
Slowest flit = 4729
Minimum fragmentation = 0
Average fragmentation = 0.253558
Maximum fragmentation = 5
Minimum injected packet rate = 0.015 (at node 22)
Average injected packet rate = 0.0249688
Maximum injected packet rate = 0.039 (at node 21)
Minimum accepted packet rate = 0.015 (at node 59)
Average accepted packet rate = 0.0241563
Maximum accepted packet rate = 0.036 (at node 5)
Minimum injected flit rate = 0.03 (at node 22)
Average injected flit rate = 0.0499219
Maximum injected flit rate = 0.077 (at node 21)
Minimum accepted flit rate = 0.03 (at node 59)
Average accepted flit rate = 0.0483281
Maximum accepted flit rate = 0.072 (at node 5)
Average injected packet length = 1.99937
Average accepted packet length = 2.00065
Total in-flight flits = 103 (0 measured)
latency change    = 1
throughput change = 1
latency change    = 1
throughput change = 1
0
Class 0:
Minimum packet latency = 8
Average packet latency = 34.7648
Maximum packet latency = 81
Minimum network latency = 8
Average network latency = 34.7157
Maximum network latency = 81
Slowest packet = 3881
Minimum flit latency = 7
Average flit latency = 33.539
Maximum flit latency = 80
Slowest flit = 7762
Minimum fragmentation = 0
Average fragmentation = 0.267284
Maximum fragmentation = 5
Minimum injected packet rate = 0.0165 (at node 57)
Average injected packet rate = 0.0256953
Maximum injected packet rate = 0.0355 (at node 56)
Minimum accepted packet rate = 0.0165 (at node 30)
Average accepted packet rate = 0.0253125
Maximum accepted packet rate = 0.0335 (at node 49)
Minimum injected flit rate = 0.033 (at node 57)
Average injected flit rate = 0.0513828
Maximum injected flit rate = 0.071 (at node 56)
Minimum accepted flit rate = 0.033 (at node 30)
Average accepted flit rate = 0.0506719
Maximum accepted flit rate = 0.067 (at node 49)
Average injected packet length = 1.9997
Average accepted packet length = 2.00185
Total in-flight flits = 92 (0 measured)
Class 1:
Minimum packet latency = 8
Average packet latency = 35.0048
Maximum packet latency = 78
Minimum network latency = 8
Average network latency = 34.9582
Maximum network latency = 78
Slowest packet = 4883
Minimum flit latency = 7
Average flit latency = 33.7865
Maximum flit latency = 77
Slowest flit = 9766
Minimum fragmentation = 0
Average fragmentation = 0.270331
Maximum fragmentation = 6
Minimum injected packet rate = 0.0175 (at node 17)
Average injected packet rate = 0.0247422
Maximum injected packet rate = 0.034 (at node 29)
Minimum accepted packet rate = 0.018 (at node 18)
Average accepted packet rate = 0.0243047
Maximum accepted packet rate = 0.033 (at node 5)
Minimum injected flit rate = 0.035 (at node 17)
Average injected flit rate = 0.0494687
Maximum injected flit rate = 0.068 (at node 29)
Minimum accepted flit rate = 0.0365 (at node 18)
Average accepted flit rate = 0.0486641
Maximum accepted flit rate = 0.066 (at node 5)
Average injected packet length = 1.99937
Average accepted packet length = 2.00225
Total in-flight flits = 105 (0 measured)
latency change    = 0.00119422
throughput change = 0.0123343
latency change    = 0.0054595
throughput change = 0.00690319
0
Class 0:
Minimum packet latency = 8
Average packet latency = 34.9769
Maximum packet latency = 80
Minimum network latency = 8
Average network latency = 34.9371
Maximum network latency = 80
Slowest packet = 8707
Minimum flit latency = 7
Average flit latency = 33.7571
Maximum flit latency = 79
Slowest flit = 17414
Minimum fragmentation = 0
Average fragmentation = 0.296082
Maximum fragmentation = 5
Minimum injected packet rate = 0.016 (at node 44)
Average injected packet rate = 0.0243125
Maximum injected packet rate = 0.037 (at node 12)
Minimum accepted packet rate = 0.013 (at node 62)
Average accepted packet rate = 0.0243281
Maximum accepted packet rate = 0.036 (at node 59)
Minimum injected flit rate = 0.032 (at node 44)
Average injected flit rate = 0.0486406
Maximum injected flit rate = 0.074 (at node 12)
Minimum accepted flit rate = 0.026 (at node 62)
Average accepted flit rate = 0.0485625
Maximum accepted flit rate = 0.072 (at node 59)
Average injected packet length = 2.00064
Average accepted packet length = 1.99615
Total in-flight flits = 96 (0 measured)
Class 1:
Minimum packet latency = 8
Average packet latency = 35.4468
Maximum packet latency = 78
Minimum network latency = 8
Average network latency = 35.3897
Maximum network latency = 78
Slowest packet = 8305
Minimum flit latency = 7
Average flit latency = 34.1978
Maximum flit latency = 77
Slowest flit = 16610
Minimum fragmentation = 0
Average fragmentation = 0.279487
Maximum fragmentation = 6
Minimum injected packet rate = 0.015 (at node 48)
Average injected packet rate = 0.0244844
Maximum injected packet rate = 0.035 (at node 21)
Minimum accepted packet rate = 0.014 (at node 4)
Average accepted packet rate = 0.024375
Maximum accepted packet rate = 0.037 (at node 14)
Minimum injected flit rate = 0.03 (at node 48)
Average injected flit rate = 0.049
Maximum injected flit rate = 0.07 (at node 21)
Minimum accepted flit rate = 0.028 (at node 4)
Average accepted flit rate = 0.0486562
Maximum accepted flit rate = 0.074 (at node 14)
Average injected packet length = 2.00128
Average accepted packet length = 1.99615
Total in-flight flits = 125 (0 measured)
latency change    = 0.00606297
throughput change = 0.0434363
latency change    = 0.0124686
throughput change = 0.000160565
Warmed up ...Time used is 3000 cycles
1
Class 0:
Minimum packet latency = 8
Average packet latency = 34.6051
Maximum packet latency = 85
Minimum network latency = 8
Average network latency = 34.5657
Maximum network latency = 84
Slowest packet = 10229
Minimum flit latency = 7
Average flit latency = 33.6332
Maximum flit latency = 83
Slowest flit = 20458
Minimum fragmentation = 0
Average fragmentation = 0.326544
Maximum fragmentation = 5
Minimum injected packet rate = 0.017 (at node 7)
Average injected packet rate = 0.0246875
Maximum injected packet rate = 0.031 (at node 0)
Minimum accepted packet rate = 0.013 (at node 16)
Average accepted packet rate = 0.0245313
Maximum accepted packet rate = 0.034 (at node 50)
Minimum injected flit rate = 0.034 (at node 7)
Average injected flit rate = 0.0493281
Maximum injected flit rate = 0.062 (at node 0)
Minimum accepted flit rate = 0.026 (at node 16)
Average accepted flit rate = 0.0491094
Maximum accepted flit rate = 0.068 (at node 50)
Average injected packet length = 1.9981
Average accepted packet length = 2.00191
Total in-flight flits = 113 (113 measured)
Class 1:
Minimum packet latency = 8
Average packet latency = 35.3391
Maximum packet latency = 80
Minimum network latency = 8
Average network latency = 35.2901
Maximum network latency = 80
Slowest packet = 11483
Minimum flit latency = 7
Average flit latency = 34.316
Maximum flit latency = 79
Slowest flit = 22967
Minimum fragmentation = 0
Average fragmentation = 0.274809
Maximum fragmentation = 7
Minimum injected packet rate = 0.016 (at node 58)
Average injected packet rate = 0.0257031
Maximum injected packet rate = 0.037 (at node 40)
Minimum accepted packet rate = 0.015 (at node 28)
Average accepted packet rate = 0.0255469
Maximum accepted packet rate = 0.037 (at node 19)
Minimum injected flit rate = 0.032 (at node 58)
Average injected flit rate = 0.051375
Maximum injected flit rate = 0.074 (at node 40)
Minimum accepted flit rate = 0.03 (at node 28)
Average accepted flit rate = 0.051125
Maximum accepted flit rate = 0.074 (at node 19)
Average injected packet length = 1.99878
Average accepted packet length = 2.00122
Total in-flight flits = 145 (145 measured)
latency change    = 0.0107427
throughput change = 0.0111359
latency change    = 0.00304865
throughput change = 0.0482885
1
Class 0:
Minimum packet latency = 8
Average packet latency = 34.9156
Maximum packet latency = 85
Minimum network latency = 8
Average network latency = 34.8739
Maximum network latency = 84
Slowest packet = 10229
Minimum flit latency = 7
Average flit latency = 33.8212
Maximum flit latency = 83
Slowest flit = 20458
Minimum fragmentation = 0
Average fragmentation = 0.299612
Maximum fragmentation = 5
Minimum injected packet rate = 0.017 (at node 44)
Average injected packet rate = 0.0245938
Maximum injected packet rate = 0.0325 (at node 0)
Minimum accepted packet rate = 0.015 (at node 16)
Average accepted packet rate = 0.0245469
Maximum accepted packet rate = 0.0325 (at node 10)
Minimum injected flit rate = 0.034 (at node 44)
Average injected flit rate = 0.0491719
Maximum injected flit rate = 0.065 (at node 0)
Minimum accepted flit rate = 0.03 (at node 16)
Average accepted flit rate = 0.0491016
Maximum accepted flit rate = 0.065 (at node 10)
Average injected packet length = 1.99936
Average accepted packet length = 2.00032
Total in-flight flits = 107 (107 measured)
Class 1:
Minimum packet latency = 8
Average packet latency = 35.2429
Maximum packet latency = 80
Minimum network latency = 8
Average network latency = 35.2018
Maximum network latency = 80
Slowest packet = 11483
Minimum flit latency = 7
Average flit latency = 34.1388
Maximum flit latency = 79
Slowest flit = 22967
Minimum fragmentation = 0
Average fragmentation = 0.271566
Maximum fragmentation = 7
Minimum injected packet rate = 0.017 (at node 2)
Average injected packet rate = 0.0255
Maximum injected packet rate = 0.033 (at node 59)
Minimum accepted packet rate = 0.0185 (at node 21)
Average accepted packet rate = 0.0255781
Maximum accepted packet rate = 0.034 (at node 19)
Minimum injected flit rate = 0.034 (at node 2)
Average injected flit rate = 0.051
Maximum injected flit rate = 0.066 (at node 59)
Minimum accepted flit rate = 0.0375 (at node 21)
Average accepted flit rate = 0.0511563
Maximum accepted flit rate = 0.068 (at node 19)
Average injected packet length = 2
Average accepted packet length = 2
Total in-flight flits = 105 (105 measured)
latency change    = 0.00889339
throughput change = 0.000159109
latency change    = 0.00272802
throughput change = 0.000610874
1
Class 0:
Minimum packet latency = 8
Average packet latency = 34.9382
Maximum packet latency = 85
Minimum network latency = 8
Average network latency = 34.8978
Maximum network latency = 84
Slowest packet = 10229
Minimum flit latency = 7
Average flit latency = 33.7987
Maximum flit latency = 83
Slowest flit = 20458
Minimum fragmentation = 0
Average fragmentation = 0.300127
Maximum fragmentation = 7
Minimum injected packet rate = 0.0166667 (at node 44)
Average injected packet rate = 0.0248594
Maximum injected packet rate = 0.03 (at node 15)
Minimum accepted packet rate = 0.0153333 (at node 16)
Average accepted packet rate = 0.0247708
Maximum accepted packet rate = 0.0333333 (at node 60)
Minimum injected flit rate = 0.0333333 (at node 44)
Average injected flit rate = 0.0497135
Maximum injected flit rate = 0.06 (at node 15)
Minimum accepted flit rate = 0.0306667 (at node 16)
Average accepted flit rate = 0.0495469
Maximum accepted flit rate = 0.0666667 (at node 60)
Average injected packet length = 1.99979
Average accepted packet length = 2.00021
Total in-flight flits = 129 (129 measured)
Class 1:
Minimum packet latency = 8
Average packet latency = 35.1238
Maximum packet latency = 81
Minimum network latency = 8
Average network latency = 35.0785
Maximum network latency = 81
Slowest packet = 18699
Minimum flit latency = 7
Average flit latency = 33.9787
Maximum flit latency = 80
Slowest flit = 37398
Minimum fragmentation = 0
Average fragmentation = 0.27722
Maximum fragmentation = 7
Minimum injected packet rate = 0.019 (at node 3)
Average injected packet rate = 0.0256823
Maximum injected packet rate = 0.0316667 (at node 38)
Minimum accepted packet rate = 0.0203333 (at node 58)
Average accepted packet rate = 0.0257292
Maximum accepted packet rate = 0.0333333 (at node 8)
Minimum injected flit rate = 0.038 (at node 3)
Average injected flit rate = 0.0513594
Maximum injected flit rate = 0.0633333 (at node 38)
Minimum accepted flit rate = 0.0406667 (at node 58)
Average accepted flit rate = 0.0514583
Maximum accepted flit rate = 0.0666667 (at node 8)
Average injected packet length = 1.9998
Average accepted packet length = 2
Total in-flight flits = 107 (107 measured)
latency change    = 0.000645343
throughput change = 0.0089877
latency change    = 0.00338996
throughput change = 0.00587045
Draining all recorded packets ...
Draining remaining packets ...
Time taken is 6117 cycles
====== Traffic class 0 ======
Overall minimum packet latency = 8 (1 samples)
Overall average packet latency = 35.0107 (1 samples)
Overall maximum packet latency = 85 (1 samples)
Overall minimum network latency = 8 (1 samples)
Overall average network latency = 34.9707 (1 samples)
Overall maximum network latency = 84 (1 samples)
Overall minimum flit latency = 7 (1 samples)
Overall average flit latency = 33.8548 (1 samples)
Overall maximum flit latency = 83 (1 samples)
Overall minimum fragmentation = 0 (1 samples)
Overall average fragmentation = 0.301278 (1 samples)
Overall maximum fragmentation = 7 (1 samples)
Overall minimum injected packet rate = 0.0166667 (1 samples)
Overall average injected packet rate = 0.0248594 (1 samples)
Overall maximum injected packet rate = 0.03 (1 samples)
Overall minimum accepted packet rate = 0.0153333 (1 samples)
Overall average accepted packet rate = 0.0247708 (1 samples)
Overall maximum accepted packet rate = 0.0333333 (1 samples)
Overall minimum injected flit rate = 0.0333333 (1 samples)
Overall average injected flit rate = 0.0497135 (1 samples)
Overall maximum injected flit rate = 0.06 (1 samples)
Overall minimum accepted flit rate = 0.0306667 (1 samples)
Overall average accepted flit rate = 0.0495469 (1 samples)
Overall maximum accepted flit rate = 0.0666667 (1 samples)
Overall average injected packet size = 1.99979 (1 samples)
Overall average accepted packet size = 2.00021 (1 samples)
Overall average hops = 6.2577 (1 samples)
====== Traffic class 1 ======
Overall minimum packet latency = 8 (1 samples)
Overall average packet latency = 35.1918 (1 samples)
Overall maximum packet latency = 81 (1 samples)
Overall minimum network latency = 8 (1 samples)
Overall average network latency = 35.1464 (1 samples)
Overall maximum network latency = 81 (1 samples)
Overall minimum flit latency = 7 (1 samples)
Overall average flit latency = 33.9948 (1 samples)
Overall maximum flit latency = 80 (1 samples)
Overall minimum fragmentation = 0 (1 samples)
Overall average fragmentation = 0.277631 (1 samples)
Overall maximum fragmentation = 7 (1 samples)
Overall minimum injected packet rate = 0.019 (1 samples)
Overall average injected packet rate = 0.0256823 (1 samples)
Overall maximum injected packet rate = 0.0316667 (1 samples)
Overall minimum accepted packet rate = 0.0203333 (1 samples)
Overall average accepted packet rate = 0.0257292 (1 samples)
Overall maximum accepted packet rate = 0.0333333 (1 samples)
Overall minimum injected flit rate = 0.038 (1 samples)
Overall average injected flit rate = 0.0513594 (1 samples)
Overall maximum injected flit rate = 0.0633333 (1 samples)
Overall minimum accepted flit rate = 0.0406667 (1 samples)
Overall average accepted flit rate = 0.0514583 (1 samples)
Overall maximum accepted flit rate = 0.0666667 (1 samples)
Overall average injected packet size = 1.9998 (1 samples)
Overall average accepted packet size = 2 (1 samples)
Overall average hops = 6.2973 (1 samples)
Total run time 3.21572
