BEGIN Configuration File: ./examples/project_inputs/config-iq_tp-uniform_c1ir-0.05_c0ir-0.13_prio-islip
//
// EVC Router Config File -         
//
// Jason Deng, Mike Wang        
//        

//
// Flow control
//

num_vcs     = 5;
vc_buf_size = 6;

wait_for_tail_credit = 0;

vc_allocator = islip;
sw_allocator = islip;
alloc_iters  = 2;

credit_delay   = 2;
routing_delay  = 1;
vc_alloc_delay = 1;
sw_alloc_delay = 1;
st_final_delay = 1;

input_speedup     = 1;
output_speedup    = 1;
internal_speedup  = 1.0;

//
// Traffic
//

sim_type = latency;

warmup_periods = 3;
sample_period  = 1000;
sim_count = 1;

//
//topoogy
//

topology = mesh;
k  = 8;
n  = 2;

//
// Routing
//

router = iq;
routing_function = dor;

packet_size = 2;
use_read_write = 0;

traffic  = uniform;
injection_rate = {0.13,0.05};
injection_rate_uses_flits = 1;

classes = 2;
class_priority = {0,0};
priority = class;

noq = 0;
hold_switch_for_packet = 0;
vc_prioritize_empty = 0;

//
// express virtual channel settings
//

evc = 1;
num_evcs = 1;
evc_prioritized_class = 1;
selective_vc_request = 1;
hold_switch_for_evc_packet = 1;
evc_next_route = 1;

END Configuration File: ./examples/project_inputs/config-iq_tp-uniform_c1ir-0.05_c0ir-0.13_prio-islip
0
Class 0:
Minimum packet latency = 8
Average packet latency = 35.7784
Maximum packet latency = 95
Minimum network latency = 8
Average network latency = 35.6701
Maximum network latency = 95
Slowest packet = 885
Minimum flit latency = 7
Average flit latency = 34.3685
Maximum flit latency = 94
Slowest flit = 1771
Minimum fragmentation = 0
Average fragmentation = 0.530682
Maximum fragmentation = 8
Minimum injected packet rate = 0.047 (at node 42)
Average injected packet rate = 0.0660938
Maximum injected packet rate = 0.083 (at node 62)
Minimum accepted packet rate = 0.045 (at node 10)
Average accepted packet rate = 0.0636562
Maximum accepted packet rate = 0.079 (at node 55)
Minimum injected flit rate = 0.094 (at node 42)
Average injected flit rate = 0.132094
Maximum injected flit rate = 0.166 (at node 62)
Minimum accepted flit rate = 0.09 (at node 10)
Average accepted flit rate = 0.127391
Maximum accepted flit rate = 0.158 (at node 55)
Average injected packet length = 1.99858
Average accepted packet length = 2.00123
Total in-flight flits = 307 (0 measured)
Class 1:
Minimum packet latency = 8
Average packet latency = 35.8313
Maximum packet latency = 79
Minimum network latency = 8
Average network latency = 35.7683
Maximum network latency = 79
Slowest packet = 1894
Minimum flit latency = 7
Average flit latency = 34.421
Maximum flit latency = 78
Slowest flit = 3788
Minimum fragmentation = 0
Average fragmentation = 0.523904
Maximum fragmentation = 7
Minimum injected packet rate = 0.011 (at node 5)
Average injected packet rate = 0.0243906
Maximum injected packet rate = 0.036 (at node 24)
Minimum accepted packet rate = 0.015 (at node 53)
Average accepted packet rate = 0.0235313
Maximum accepted packet rate = 0.032 (at node 16)
Minimum injected flit rate = 0.022 (at node 5)
Average injected flit rate = 0.04875
Maximum injected flit rate = 0.072 (at node 24)
Minimum accepted flit rate = 0.03 (at node 53)
Average accepted flit rate = 0.0470937
Maximum accepted flit rate = 0.064 (at node 16)
Average injected packet length = 1.99872
Average accepted packet length = 2.00133
Total in-flight flits = 108 (0 measured)
latency change    = 1
throughput change = 1
latency change    = 1
throughput change = 1
0
Class 0:
Minimum packet latency = 8
Average packet latency = 35.8739
Maximum packet latency = 95
Minimum network latency = 8
Average network latency = 35.7681
Maximum network latency = 95
Slowest packet = 885
Minimum flit latency = 7
Average flit latency = 34.4621
Maximum flit latency = 94
Slowest flit = 1771
Minimum fragmentation = 0
Average fragmentation = 0.539971
Maximum fragmentation = 8
Minimum injected packet rate = 0.0535 (at node 43)
Average injected packet rate = 0.0660391
Maximum injected packet rate = 0.0765 (at node 41)
Minimum accepted packet rate = 0.052 (at node 52)
Average accepted packet rate = 0.0648906
Maximum accepted packet rate = 0.076 (at node 37)
Minimum injected flit rate = 0.107 (at node 43)
Average injected flit rate = 0.132031
Maximum injected flit rate = 0.153 (at node 41)
Minimum accepted flit rate = 0.104 (at node 52)
Average accepted flit rate = 0.129828
Maximum accepted flit rate = 0.1525 (at node 37)
Average injected packet length = 1.99929
Average accepted packet length = 2.00072
Total in-flight flits = 288 (0 measured)
Class 1:
Minimum packet latency = 8
Average packet latency = 35.8234
Maximum packet latency = 79
Minimum network latency = 8
Average network latency = 35.7554
Maximum network latency = 79
Slowest packet = 1894
Minimum flit latency = 6
Average flit latency = 34.4072
Maximum flit latency = 78
Slowest flit = 3788
Minimum fragmentation = 0
Average fragmentation = 0.521583
Maximum fragmentation = 9
Minimum injected packet rate = 0.016 (at node 41)
Average injected packet rate = 0.0243203
Maximum injected packet rate = 0.0325 (at node 8)
Minimum accepted packet rate = 0.017 (at node 46)
Average accepted packet rate = 0.0238906
Maximum accepted packet rate = 0.0315 (at node 59)
Minimum injected flit rate = 0.032 (at node 41)
Average injected flit rate = 0.048625
Maximum injected flit rate = 0.0645 (at node 8)
Minimum accepted flit rate = 0.034 (at node 46)
Average accepted flit rate = 0.0477891
Maximum accepted flit rate = 0.063 (at node 59)
Average injected packet length = 1.99936
Average accepted packet length = 2.00033
Total in-flight flits = 109 (0 measured)
latency change    = 0.00266478
throughput change = 0.0187748
latency change    = 0.000221288
throughput change = 0.0145496
0
Class 0:
Minimum packet latency = 8
Average packet latency = 35.8144
Maximum packet latency = 90
Minimum network latency = 8
Average network latency = 35.6989
Maximum network latency = 90
Slowest packet = 12825
Minimum flit latency = 7
Average flit latency = 34.4245
Maximum flit latency = 89
Slowest flit = 25651
Minimum fragmentation = 0
Average fragmentation = 0.49916
Maximum fragmentation = 10
Minimum injected packet rate = 0.045 (at node 40)
Average injected packet rate = 0.0651094
Maximum injected packet rate = 0.086 (at node 21)
Minimum accepted packet rate = 0.044 (at node 52)
Average accepted packet rate = 0.0650781
Maximum accepted packet rate = 0.082 (at node 29)
Minimum injected flit rate = 0.09 (at node 40)
Average injected flit rate = 0.130281
Maximum injected flit rate = 0.172 (at node 21)
Minimum accepted flit rate = 0.088 (at node 52)
Average accepted flit rate = 0.130234
Maximum accepted flit rate = 0.164 (at node 29)
Average injected packet length = 2.00096
Average accepted packet length = 2.0012
Total in-flight flits = 287 (0 measured)
Class 1:
Minimum packet latency = 8
Average packet latency = 36.2982
Maximum packet latency = 80
Minimum network latency = 8
Average network latency = 36.2405
Maximum network latency = 80
Slowest packet = 11372
Minimum flit latency = 7
Average flit latency = 34.8696
Maximum flit latency = 79
Slowest flit = 22745
Minimum fragmentation = 0
Average fragmentation = 0.531091
Maximum fragmentation = 11
Minimum injected packet rate = 0.013 (at node 14)
Average injected packet rate = 0.0245156
Maximum injected packet rate = 0.037 (at node 7)
Minimum accepted packet rate = 0.017 (at node 19)
Average accepted packet rate = 0.024625
Maximum accepted packet rate = 0.038 (at node 10)
Minimum injected flit rate = 0.026 (at node 14)
Average injected flit rate = 0.0490625
Maximum injected flit rate = 0.074 (at node 7)
Minimum accepted flit rate = 0.034 (at node 19)
Average accepted flit rate = 0.04925
Maximum accepted flit rate = 0.076 (at node 10)
Average injected packet length = 2.00127
Average accepted packet length = 2
Total in-flight flits = 95 (0 measured)
latency change    = 0.00166248
throughput change = 0.00311938
latency change    = 0.0130808
throughput change = 0.0296637
Warmed up ...Time used is 3000 cycles
1
Class 0:
Minimum packet latency = 8
Average packet latency = 35.6839
Maximum packet latency = 81
Minimum network latency = 8
Average network latency = 35.5738
Maximum network latency = 81
Slowest packet = 22203
Minimum flit latency = 7
Average flit latency = 34.4234
Maximum flit latency = 80
Slowest flit = 44407
Minimum fragmentation = 0
Average fragmentation = 0.535938
Maximum fragmentation = 10
Minimum injected packet rate = 0.049 (at node 46)
Average injected packet rate = 0.0648125
Maximum injected packet rate = 0.085 (at node 18)
Minimum accepted packet rate = 0.048 (at node 12)
Average accepted packet rate = 0.0647188
Maximum accepted packet rate = 0.081 (at node 8)
Minimum injected flit rate = 0.098 (at node 46)
Average injected flit rate = 0.129562
Maximum injected flit rate = 0.171 (at node 18)
Minimum accepted flit rate = 0.096 (at node 12)
Average accepted flit rate = 0.129375
Maximum accepted flit rate = 0.163 (at node 8)
Average injected packet length = 1.99904
Average accepted packet length = 1.99903
Total in-flight flits = 303 (303 measured)
Class 1:
Minimum packet latency = 8
Average packet latency = 35.7962
Maximum packet latency = 77
Minimum network latency = 8
Average network latency = 35.7477
Maximum network latency = 77
Slowest packet = 20238
Minimum flit latency = 7
Average flit latency = 34.5602
Maximum flit latency = 76
Slowest flit = 40477
Minimum fragmentation = 0
Average fragmentation = 0.52228
Maximum fragmentation = 6
Minimum injected packet rate = 0.015 (at node 12)
Average injected packet rate = 0.0248594
Maximum injected packet rate = 0.036 (at node 37)
Minimum accepted packet rate = 0.012 (at node 38)
Average accepted packet rate = 0.0245938
Maximum accepted packet rate = 0.035 (at node 20)
Minimum injected flit rate = 0.03 (at node 12)
Average injected flit rate = 0.0497031
Maximum injected flit rate = 0.072 (at node 37)
Minimum accepted flit rate = 0.024 (at node 38)
Average accepted flit rate = 0.0492031
Maximum accepted flit rate = 0.07 (at node 20)
Average injected packet length = 1.99937
Average accepted packet length = 2.00064
Total in-flight flits = 128 (128 measured)
latency change    = 0.00365595
throughput change = 0.00664251
latency change    = 0.0140245
throughput change = 0.000952683
1
Class 0:
Minimum packet latency = 8
Average packet latency = 35.9836
Maximum packet latency = 89
Minimum network latency = 8
Average network latency = 35.8643
Maximum network latency = 89
Slowest packet = 26463
Minimum flit latency = 7
Average flit latency = 34.6341
Maximum flit latency = 88
Slowest flit = 52927
Minimum fragmentation = 0
Average fragmentation = 0.530331
Maximum fragmentation = 10
Minimum injected packet rate = 0.049 (at node 46)
Average injected packet rate = 0.0645547
Maximum injected packet rate = 0.0745 (at node 1)
Minimum accepted packet rate = 0.051 (at node 12)
Average accepted packet rate = 0.0646562
Maximum accepted packet rate = 0.075 (at node 23)
Minimum injected flit rate = 0.098 (at node 46)
Average injected flit rate = 0.129117
Maximum injected flit rate = 0.149 (at node 1)
Minimum accepted flit rate = 0.102 (at node 12)
Average accepted flit rate = 0.129281
Maximum accepted flit rate = 0.15 (at node 23)
Average injected packet length = 2.00012
Average accepted packet length = 1.99952
Total in-flight flits = 265 (265 measured)
Class 1:
Minimum packet latency = 8
Average packet latency = 35.4835
Maximum packet latency = 82
Minimum network latency = 8
Average network latency = 35.4214
Maximum network latency = 82
Slowest packet = 27779
Minimum flit latency = 7
Average flit latency = 34.1437
Maximum flit latency = 81
Slowest flit = 55559
Minimum fragmentation = 0
Average fragmentation = 0.529468
Maximum fragmentation = 8
Minimum injected packet rate = 0.0175 (at node 54)
Average injected packet rate = 0.0250469
Maximum injected packet rate = 0.0325 (at node 61)
Minimum accepted packet rate = 0.017 (at node 38)
Average accepted packet rate = 0.0250313
Maximum accepted packet rate = 0.032 (at node 20)
Minimum injected flit rate = 0.035 (at node 54)
Average injected flit rate = 0.0500625
Maximum injected flit rate = 0.065 (at node 61)
Minimum accepted flit rate = 0.034 (at node 38)
Average accepted flit rate = 0.0500625
Maximum accepted flit rate = 0.064 (at node 20)
Average injected packet length = 1.99875
Average accepted packet length = 2
Total in-flight flits = 99 (99 measured)
latency change    = 0.00832845
throughput change = 0.000725163
latency change    = 0.00881186
throughput change = 0.017166
1
Class 0:
Minimum packet latency = 8
Average packet latency = 35.9411
Maximum packet latency = 89
Minimum network latency = 8
Average network latency = 35.8243
Maximum network latency = 89
Slowest packet = 26463
Minimum flit latency = 6
Average flit latency = 34.5681
Maximum flit latency = 88
Slowest flit = 52927
Minimum fragmentation = 0
Average fragmentation = 0.534361
Maximum fragmentation = 10
Minimum injected packet rate = 0.054 (at node 24)
Average injected packet rate = 0.0649896
Maximum injected packet rate = 0.0736667 (at node 56)
Minimum accepted packet rate = 0.0546667 (at node 17)
Average accepted packet rate = 0.0649688
Maximum accepted packet rate = 0.0736667 (at node 9)
Minimum injected flit rate = 0.108 (at node 24)
Average injected flit rate = 0.129964
Maximum injected flit rate = 0.147333 (at node 56)
Minimum accepted flit rate = 0.109333 (at node 17)
Average accepted flit rate = 0.129906
Maximum accepted flit rate = 0.147333 (at node 11)
Average injected packet length = 1.99976
Average accepted packet length = 1.99952
Total in-flight flits = 301 (301 measured)
Class 1:
Minimum packet latency = 8
Average packet latency = 35.5871
Maximum packet latency = 82
Minimum network latency = 8
Average network latency = 35.5257
Maximum network latency = 82
Slowest packet = 27779
Minimum flit latency = 7
Average flit latency = 34.223
Maximum flit latency = 81
Slowest flit = 55559
Minimum fragmentation = 0
Average fragmentation = 0.533181
Maximum fragmentation = 8
Minimum injected packet rate = 0.017 (at node 54)
Average injected packet rate = 0.0253646
Maximum injected packet rate = 0.0316667 (at node 61)
Minimum accepted packet rate = 0.019 (at node 0)
Average accepted packet rate = 0.0252865
Maximum accepted packet rate = 0.0316667 (at node 20)
Minimum injected flit rate = 0.034 (at node 54)
Average injected flit rate = 0.050724
Maximum injected flit rate = 0.0633333 (at node 61)
Minimum accepted flit rate = 0.038 (at node 0)
Average accepted flit rate = 0.0505729
Maximum accepted flit rate = 0.0633333 (at node 20)
Average injected packet length = 1.99979
Average accepted packet length = 2
Total in-flight flits = 125 (125 measured)
latency change    = 0.00118359
throughput change = 0.00481116
latency change    = 0.0029094
throughput change = 0.0100927
Draining all recorded packets ...
Draining remaining packets ...
Time taken is 6132 cycles
====== Traffic class 0 ======
Overall minimum packet latency = 8 (1 samples)
Overall average packet latency = 36.0268 (1 samples)
Overall maximum packet latency = 89 (1 samples)
Overall minimum network latency = 8 (1 samples)
Overall average network latency = 35.9093 (1 samples)
Overall maximum network latency = 89 (1 samples)
Overall minimum flit latency = 6 (1 samples)
Overall average flit latency = 34.6583 (1 samples)
Overall maximum flit latency = 88 (1 samples)
Overall minimum fragmentation = 0 (1 samples)
Overall average fragmentation = 0.535022 (1 samples)
Overall maximum fragmentation = 10 (1 samples)
Overall minimum injected packet rate = 0.054 (1 samples)
Overall average injected packet rate = 0.0649896 (1 samples)
Overall maximum injected packet rate = 0.0736667 (1 samples)
Overall minimum accepted packet rate = 0.0546667 (1 samples)
Overall average accepted packet rate = 0.0649688 (1 samples)
Overall maximum accepted packet rate = 0.0736667 (1 samples)
Overall minimum injected flit rate = 0.108 (1 samples)
Overall average injected flit rate = 0.129964 (1 samples)
Overall maximum injected flit rate = 0.147333 (1 samples)
Overall minimum accepted flit rate = 0.109333 (1 samples)
Overall average accepted flit rate = 0.129906 (1 samples)
Overall maximum accepted flit rate = 0.147333 (1 samples)
Overall average injected packet size = 1.99976 (1 samples)
Overall average accepted packet size = 1.99952 (1 samples)
Overall average hops = 6.27176 (1 samples)
====== Traffic class 1 ======
Overall minimum packet latency = 8 (1 samples)
Overall average packet latency = 35.6758 (1 samples)
Overall maximum packet latency = 82 (1 samples)
Overall minimum network latency = 8 (1 samples)
Overall average network latency = 35.6138 (1 samples)
Overall maximum network latency = 82 (1 samples)
Overall minimum flit latency = 7 (1 samples)
Overall average flit latency = 34.3125 (1 samples)
Overall maximum flit latency = 81 (1 samples)
Overall minimum fragmentation = 0 (1 samples)
Overall average fragmentation = 0.531622 (1 samples)
Overall maximum fragmentation = 8 (1 samples)
Overall minimum injected packet rate = 0.017 (1 samples)
Overall average injected packet rate = 0.0253646 (1 samples)
Overall maximum injected packet rate = 0.0316667 (1 samples)
Overall minimum accepted packet rate = 0.019 (1 samples)
Overall average accepted packet rate = 0.0252865 (1 samples)
Overall maximum accepted packet rate = 0.0316667 (1 samples)
Overall minimum injected flit rate = 0.034 (1 samples)
Overall average injected flit rate = 0.050724 (1 samples)
Overall maximum injected flit rate = 0.0633333 (1 samples)
Overall minimum accepted flit rate = 0.038 (1 samples)
Overall average accepted flit rate = 0.0505729 (1 samples)
Overall maximum accepted flit rate = 0.0633333 (1 samples)
Overall average injected packet size = 1.99979 (1 samples)
Overall average accepted packet size = 2 (1 samples)
Overall average hops = 6.21253 (1 samples)
Total run time 4.895
