BEGIN Configuration File: ./examples/project_inputs/config-iq_tp-uniform_c1ir-0.05_c0ir-0.19_prio-islip
//
// EVC Router Config File -         
//
// Jason Deng, Mike Wang        
//        

//
// Flow control
//

num_vcs     = 5;
vc_buf_size = 6;

wait_for_tail_credit = 0;

vc_allocator = islip;
sw_allocator = islip;
alloc_iters  = 2;

credit_delay   = 2;
routing_delay  = 1;
vc_alloc_delay = 1;
sw_alloc_delay = 1;
st_final_delay = 1;

input_speedup     = 1;
output_speedup    = 1;
internal_speedup  = 1.0;

//
// Traffic
//

sim_type = latency;

warmup_periods = 3;
sample_period  = 1000;
sim_count = 1;

//
//topoogy
//

topology = mesh;
k  = 8;
n  = 2;

//
// Routing
//

router = iq;
routing_function = dor;

packet_size = 2;
use_read_write = 0;

traffic  = uniform;
injection_rate = {0.19,0.05};
injection_rate_uses_flits = 1;

classes = 2;
class_priority = {0,0};
priority = class;

noq = 0;
hold_switch_for_packet = 0;
vc_prioritize_empty = 0;

//
// express virtual channel settings
//

evc = 1;
num_evcs = 1;
evc_prioritized_class = 1;
selective_vc_request = 1;
hold_switch_for_evc_packet = 1;
evc_next_route = 1;

END Configuration File: ./examples/project_inputs/config-iq_tp-uniform_c1ir-0.05_c0ir-0.19_prio-islip
0
Class 0:
Minimum packet latency = 8
Average packet latency = 36.7058
Maximum packet latency = 94
Minimum network latency = 8
Average network latency = 36.5288
Maximum network latency = 94
Slowest packet = 5645
Minimum flit latency = 6
Average flit latency = 35.1292
Maximum flit latency = 93
Slowest flit = 11290
Minimum fragmentation = 0
Average fragmentation = 0.7423
Maximum fragmentation = 14
Minimum injected packet rate = 0.074 (at node 49)
Average injected packet rate = 0.0931094
Maximum injected packet rate = 0.114 (at node 58)
Minimum accepted packet rate = 0.069 (at node 52)
Average accepted packet rate = 0.0897969
Maximum accepted packet rate = 0.118 (at node 34)
Minimum injected flit rate = 0.147 (at node 49)
Average injected flit rate = 0.186141
Maximum injected flit rate = 0.228 (at node 58)
Minimum accepted flit rate = 0.138 (at node 52)
Average accepted flit rate = 0.179844
Maximum accepted flit rate = 0.236 (at node 34)
Average injected packet length = 1.99916
Average accepted packet length = 2.00278
Total in-flight flits = 408 (0 measured)
Class 1:
Minimum packet latency = 8
Average packet latency = 36.8696
Maximum packet latency = 90
Minimum network latency = 8
Average network latency = 36.7952
Maximum network latency = 90
Slowest packet = 6745
Minimum flit latency = 7
Average flit latency = 35.2782
Maximum flit latency = 89
Slowest flit = 13490
Minimum fragmentation = 0
Average fragmentation = 0.759294
Maximum fragmentation = 10
Minimum injected packet rate = 0.013 (at node 4)
Average injected packet rate = 0.0257031
Maximum injected packet rate = 0.035 (at node 61)
Minimum accepted packet rate = 0.016 (at node 28)
Average accepted packet rate = 0.0247969
Maximum accepted packet rate = 0.033 (at node 3)
Minimum injected flit rate = 0.026 (at node 4)
Average injected flit rate = 0.0513906
Maximum injected flit rate = 0.07 (at node 61)
Minimum accepted flit rate = 0.032 (at node 30)
Average accepted flit rate = 0.0496562
Maximum accepted flit rate = 0.066 (at node 3)
Average injected packet length = 1.99939
Average accepted packet length = 2.00252
Total in-flight flits = 112 (0 measured)
latency change    = 1
throughput change = 1
latency change    = 1
throughput change = 1
0
Class 0:
Minimum packet latency = 8
Average packet latency = 36.7414
Maximum packet latency = 98
Minimum network latency = 8
Average network latency = 36.5678
Maximum network latency = 98
Slowest packet = 7153
Minimum flit latency = 6
Average flit latency = 35.1562
Maximum flit latency = 97
Slowest flit = 14307
Minimum fragmentation = 0
Average fragmentation = 0.744978
Maximum fragmentation = 14
Minimum injected packet rate = 0.0805 (at node 38)
Average injected packet rate = 0.0925547
Maximum injected packet rate = 0.108 (at node 4)
Minimum accepted packet rate = 0.0755 (at node 52)
Average accepted packet rate = 0.0906172
Maximum accepted packet rate = 0.105 (at node 14)
Minimum injected flit rate = 0.161 (at node 38)
Average injected flit rate = 0.185031
Maximum injected flit rate = 0.216 (at node 4)
Minimum accepted flit rate = 0.151 (at node 52)
Average accepted flit rate = 0.181352
Maximum accepted flit rate = 0.21 (at node 14)
Average injected packet length = 1.99916
Average accepted packet length = 2.00129
Total in-flight flits = 481 (0 measured)
Class 1:
Minimum packet latency = 8
Average packet latency = 36.7811
Maximum packet latency = 90
Minimum network latency = 8
Average network latency = 36.7043
Maximum network latency = 90
Slowest packet = 6745
Minimum flit latency = 7
Average flit latency = 35.2028
Maximum flit latency = 89
Slowest flit = 13490
Minimum fragmentation = 0
Average fragmentation = 0.747988
Maximum fragmentation = 10
Minimum injected packet rate = 0.017 (at node 51)
Average injected packet rate = 0.0256562
Maximum injected packet rate = 0.035 (at node 63)
Minimum accepted packet rate = 0.016 (at node 20)
Average accepted packet rate = 0.0252344
Maximum accepted packet rate = 0.0335 (at node 63)
Minimum injected flit rate = 0.034 (at node 51)
Average injected flit rate = 0.0512969
Maximum injected flit rate = 0.07 (at node 63)
Minimum accepted flit rate = 0.032 (at node 20)
Average accepted flit rate = 0.0505
Maximum accepted flit rate = 0.067 (at node 63)
Average injected packet length = 1.99939
Average accepted packet length = 2.00124
Total in-flight flits = 104 (0 measured)
latency change    = 0.000971211
throughput change = 0.00831431
latency change    = 0.00240478
throughput change = 0.0167079
0
Class 0:
Minimum packet latency = 8
Average packet latency = 36.9446
Maximum packet latency = 88
Minimum network latency = 8
Average network latency = 36.7671
Maximum network latency = 88
Slowest packet = 14982
Minimum flit latency = 7
Average flit latency = 35.3436
Maximum flit latency = 87
Slowest flit = 29964
Minimum fragmentation = 0
Average fragmentation = 0.789941
Maximum fragmentation = 12
Minimum injected packet rate = 0.069 (at node 33)
Average injected packet rate = 0.0945156
Maximum injected packet rate = 0.116 (at node 50)
Minimum accepted packet rate = 0.073 (at node 57)
Average accepted packet rate = 0.0950625
Maximum accepted packet rate = 0.122 (at node 8)
Minimum injected flit rate = 0.138 (at node 33)
Average injected flit rate = 0.189078
Maximum injected flit rate = 0.232 (at node 50)
Minimum accepted flit rate = 0.147 (at node 57)
Average accepted flit rate = 0.190062
Maximum accepted flit rate = 0.243 (at node 8)
Average injected packet length = 2.0005
Average accepted packet length = 1.99934
Total in-flight flits = 415 (0 measured)
Class 1:
Minimum packet latency = 8
Average packet latency = 37.0656
Maximum packet latency = 85
Minimum network latency = 8
Average network latency = 36.9961
Maximum network latency = 85
Slowest packet = 14998
Minimum flit latency = 7
Average flit latency = 35.4751
Maximum flit latency = 83
Slowest flit = 29997
Minimum fragmentation = 0
Average fragmentation = 0.755784
Maximum fragmentation = 10
Minimum injected packet rate = 0.014 (at node 8)
Average injected packet rate = 0.0244219
Maximum injected packet rate = 0.036 (at node 19)
Minimum accepted packet rate = 0.015 (at node 36)
Average accepted packet rate = 0.0243125
Maximum accepted packet rate = 0.037 (at node 30)
Minimum injected flit rate = 0.028 (at node 8)
Average injected flit rate = 0.048875
Maximum injected flit rate = 0.072 (at node 19)
Minimum accepted flit rate = 0.03 (at node 36)
Average accepted flit rate = 0.0485781
Maximum accepted flit rate = 0.074 (at node 30)
Average injected packet length = 2.00128
Average accepted packet length = 1.99807
Total in-flight flits = 121 (0 measured)
latency change    = 0.00549919
throughput change = 0.045832
latency change    = 0.00767392
throughput change = 0.0395626
Warmed up ...Time used is 3000 cycles
1
Class 0:
Minimum packet latency = 8
Average packet latency = 36.8419
Maximum packet latency = 91
Minimum network latency = 8
Average network latency = 36.6605
Maximum network latency = 91
Slowest packet = 27169
Minimum flit latency = 6
Average flit latency = 35.4933
Maximum flit latency = 89
Slowest flit = 54339
Minimum fragmentation = 0
Average fragmentation = 0.772805
Maximum fragmentation = 15
Minimum injected packet rate = 0.067 (at node 46)
Average injected packet rate = 0.094625
Maximum injected packet rate = 0.114 (at node 1)
Minimum accepted packet rate = 0.077 (at node 3)
Average accepted packet rate = 0.0944531
Maximum accepted packet rate = 0.113 (at node 19)
Minimum injected flit rate = 0.134 (at node 46)
Average injected flit rate = 0.189219
Maximum injected flit rate = 0.227 (at node 1)
Minimum accepted flit rate = 0.154 (at node 3)
Average accepted flit rate = 0.188891
Maximum accepted flit rate = 0.227 (at node 19)
Average injected packet length = 1.99967
Average accepted packet length = 1.99983
Total in-flight flits = 438 (438 measured)
Class 1:
Minimum packet latency = 8
Average packet latency = 36.7721
Maximum packet latency = 89
Minimum network latency = 8
Average network latency = 36.6947
Maximum network latency = 89
Slowest packet = 26332
Minimum flit latency = 6
Average flit latency = 35.3551
Maximum flit latency = 88
Slowest flit = 52664
Minimum fragmentation = 0
Average fragmentation = 0.738281
Maximum fragmentation = 10
Minimum injected packet rate = 0.014 (at node 15)
Average injected packet rate = 0.0251875
Maximum injected packet rate = 0.039 (at node 11)
Minimum accepted packet rate = 0.015 (at node 4)
Average accepted packet rate = 0.0249531
Maximum accepted packet rate = 0.037 (at node 20)
Minimum injected flit rate = 0.028 (at node 15)
Average injected flit rate = 0.0503437
Maximum injected flit rate = 0.078 (at node 11)
Minimum accepted flit rate = 0.03 (at node 4)
Average accepted flit rate = 0.0499375
Maximum accepted flit rate = 0.075 (at node 20)
Average injected packet length = 1.99876
Average accepted packet length = 2.00125
Total in-flight flits = 151 (151 measured)
latency change    = 0.00278764
throughput change = 0.00620399
latency change    = 0.00797934
throughput change = 0.0272215
1
Class 0:
Minimum packet latency = 8
Average packet latency = 37.0532
Maximum packet latency = 91
Minimum network latency = 8
Average network latency = 36.875
Maximum network latency = 91
Slowest packet = 27169
Minimum flit latency = 6
Average flit latency = 35.575
Maximum flit latency = 89
Slowest flit = 54339
Minimum fragmentation = 0
Average fragmentation = 0.771213
Maximum fragmentation = 15
Minimum injected packet rate = 0.0815 (at node 15)
Average injected packet rate = 0.0950469
Maximum injected packet rate = 0.1135 (at node 2)
Minimum accepted packet rate = 0.0785 (at node 17)
Average accepted packet rate = 0.0950234
Maximum accepted packet rate = 0.1075 (at node 56)
Minimum injected flit rate = 0.163 (at node 15)
Average injected flit rate = 0.190109
Maximum injected flit rate = 0.227 (at node 2)
Minimum accepted flit rate = 0.157 (at node 17)
Average accepted flit rate = 0.190055
Maximum accepted flit rate = 0.215 (at node 56)
Average injected packet length = 2.00016
Average accepted packet length = 2.00008
Total in-flight flits = 420 (420 measured)
Class 1:
Minimum packet latency = 8
Average packet latency = 37.0617
Maximum packet latency = 89
Minimum network latency = 8
Average network latency = 36.9789
Maximum network latency = 89
Slowest packet = 26332
Minimum flit latency = 6
Average flit latency = 35.5493
Maximum flit latency = 88
Slowest flit = 52664
Minimum fragmentation = 0
Average fragmentation = 0.751259
Maximum fragmentation = 10
Minimum injected packet rate = 0.0175 (at node 27)
Average injected packet rate = 0.0252422
Maximum injected packet rate = 0.0355 (at node 11)
Minimum accepted packet rate = 0.0175 (at node 28)
Average accepted packet rate = 0.0252891
Maximum accepted packet rate = 0.035 (at node 10)
Minimum injected flit rate = 0.035 (at node 27)
Average injected flit rate = 0.0504531
Maximum injected flit rate = 0.0705 (at node 11)
Minimum accepted flit rate = 0.035 (at node 28)
Average accepted flit rate = 0.0505859
Maximum accepted flit rate = 0.07 (at node 10)
Average injected packet length = 1.99876
Average accepted packet length = 2.00031
Total in-flight flits = 108 (108 measured)
latency change    = 0.00570301
throughput change = 0.00612488
latency change    = 0.00781338
throughput change = 0.0128185
1
Class 0:
Minimum packet latency = 8
Average packet latency = 37.0252
Maximum packet latency = 91
Minimum network latency = 8
Average network latency = 36.8441
Maximum network latency = 91
Slowest packet = 27169
Minimum flit latency = 6
Average flit latency = 35.5036
Maximum flit latency = 89
Slowest flit = 54339
Minimum fragmentation = 0
Average fragmentation = 0.77205
Maximum fragmentation = 17
Minimum injected packet rate = 0.084 (at node 15)
Average injected packet rate = 0.0955781
Maximum injected packet rate = 0.108333 (at node 2)
Minimum accepted packet rate = 0.083 (at node 23)
Average accepted packet rate = 0.095474
Maximum accepted packet rate = 0.107 (at node 53)
Minimum injected flit rate = 0.168 (at node 15)
Average injected flit rate = 0.191167
Maximum injected flit rate = 0.216667 (at node 2)
Minimum accepted flit rate = 0.166 (at node 23)
Average accepted flit rate = 0.190979
Maximum accepted flit rate = 0.214 (at node 53)
Average injected packet length = 2.00011
Average accepted packet length = 2.00033
Total in-flight flits = 449 (449 measured)
Class 1:
Minimum packet latency = 8
Average packet latency = 36.8669
Maximum packet latency = 89
Minimum network latency = 8
Average network latency = 36.7792
Maximum network latency = 89
Slowest packet = 26332
Minimum flit latency = 6
Average flit latency = 35.3113
Maximum flit latency = 88
Slowest flit = 52664
Minimum fragmentation = 0
Average fragmentation = 0.763633
Maximum fragmentation = 10
Minimum injected packet rate = 0.0196667 (at node 29)
Average injected packet rate = 0.0255
Maximum injected packet rate = 0.0326667 (at node 11)
Minimum accepted packet rate = 0.018 (at node 28)
Average accepted packet rate = 0.0254375
Maximum accepted packet rate = 0.0336667 (at node 10)
Minimum injected flit rate = 0.0393333 (at node 29)
Average injected flit rate = 0.051
Maximum injected flit rate = 0.0653333 (at node 11)
Minimum accepted flit rate = 0.036 (at node 28)
Average accepted flit rate = 0.0509115
Maximum accepted flit rate = 0.0673333 (at node 10)
Average injected packet length = 2
Average accepted packet length = 2.00143
Total in-flight flits = 138 (138 measured)
latency change    = 0.000757685
throughput change = 0.00484073
latency change    = 0.00528455
throughput change = 0.00639386
Draining all recorded packets ...
Draining remaining packets ...
Time taken is 6141 cycles
====== Traffic class 0 ======
Overall minimum packet latency = 8 (1 samples)
Overall average packet latency = 37.1084 (1 samples)
Overall maximum packet latency = 91 (1 samples)
Overall minimum network latency = 8 (1 samples)
Overall average network latency = 36.9268 (1 samples)
Overall maximum network latency = 91 (1 samples)
Overall minimum flit latency = 6 (1 samples)
Overall average flit latency = 35.578 (1 samples)
Overall maximum flit latency = 89 (1 samples)
Overall minimum fragmentation = 0 (1 samples)
Overall average fragmentation = 0.77354 (1 samples)
Overall maximum fragmentation = 17 (1 samples)
Overall minimum injected packet rate = 0.084 (1 samples)
Overall average injected packet rate = 0.0955781 (1 samples)
Overall maximum injected packet rate = 0.108333 (1 samples)
Overall minimum accepted packet rate = 0.083 (1 samples)
Overall average accepted packet rate = 0.095474 (1 samples)
Overall maximum accepted packet rate = 0.107 (1 samples)
Overall minimum injected flit rate = 0.168 (1 samples)
Overall average injected flit rate = 0.191167 (1 samples)
Overall maximum injected flit rate = 0.216667 (1 samples)
Overall minimum accepted flit rate = 0.166 (1 samples)
Overall average accepted flit rate = 0.190979 (1 samples)
Overall maximum accepted flit rate = 0.214 (1 samples)
Overall average injected packet size = 2.00011 (1 samples)
Overall average accepted packet size = 2.00033 (1 samples)
Overall average hops = 6.24869 (1 samples)
====== Traffic class 1 ======
Overall minimum packet latency = 8 (1 samples)
Overall average packet latency = 36.9338 (1 samples)
Overall maximum packet latency = 89 (1 samples)
Overall minimum network latency = 8 (1 samples)
Overall average network latency = 36.8464 (1 samples)
Overall maximum network latency = 89 (1 samples)
Overall minimum flit latency = 6 (1 samples)
Overall average flit latency = 35.3541 (1 samples)
Overall maximum flit latency = 88 (1 samples)
Overall minimum fragmentation = 0 (1 samples)
Overall average fragmentation = 0.765523 (1 samples)
Overall maximum fragmentation = 10 (1 samples)
Overall minimum injected packet rate = 0.0196667 (1 samples)
Overall average injected packet rate = 0.0255 (1 samples)
Overall maximum injected packet rate = 0.0326667 (1 samples)
Overall minimum accepted packet rate = 0.018 (1 samples)
Overall average accepted packet rate = 0.0254375 (1 samples)
Overall maximum accepted packet rate = 0.0336667 (1 samples)
Overall minimum injected flit rate = 0.0393333 (1 samples)
Overall average injected flit rate = 0.051 (1 samples)
Overall maximum injected flit rate = 0.0653333 (1 samples)
Overall minimum accepted flit rate = 0.036 (1 samples)
Overall average accepted flit rate = 0.0509115 (1 samples)
Overall maximum accepted flit rate = 0.0673333 (1 samples)
Overall average injected packet size = 2 (1 samples)
Overall average accepted packet size = 2.00143 (1 samples)
Overall average hops = 6.21732 (1 samples)
Total run time 6.11336
