BEGIN Configuration File: ./examples/project_inputs/config-iq_tp-transpose_c1ir-0.05_c0ir-0.05_prio-islip
//
// EVC Router Config File -         
//
// Jason Deng, Mike Wang        
//        

//
// Flow control
//

num_vcs     = 5;
vc_buf_size = 6;

wait_for_tail_credit = 0;

vc_allocator = islip;
sw_allocator = islip;
alloc_iters  = 2;

credit_delay   = 2;
routing_delay  = 1;
vc_alloc_delay = 1;
sw_alloc_delay = 1;
st_final_delay = 1;

input_speedup     = 1;
output_speedup    = 1;
internal_speedup  = 1.0;

//
// Traffic
//

sim_type = latency;

warmup_periods = 3;
sample_period  = 1000;
sim_count = 1;

//
//topoogy
//

topology = mesh;
k  = 8;
n  = 2;

//
// Routing
//

router = iq;
routing_function = dor;

packet_size = 2;
use_read_write = 0;

traffic  = transpose;
injection_rate = {0.05,0.05};
injection_rate_uses_flits = 1;

classes = 2;
class_priority = {0,0};
priority = class;

noq = 0;
hold_switch_for_packet = 0;
vc_prioritize_empty = 0;

//
// express virtual channel settings
//

evc = 1;
num_evcs = 1;
evc_prioritized_class = 1;
selective_vc_request = 1;
hold_switch_for_evc_packet = 1;
evc_next_route = 1;

END Configuration File: ./examples/project_inputs/config-iq_tp-transpose_c1ir-0.05_c0ir-0.05_prio-islip
0
Class 0:
Minimum packet latency = 8
Average packet latency = 34.9656
Maximum packet latency = 90
Minimum network latency = 8
Average network latency = 34.9144
Maximum network latency = 90
Slowest packet = 1701
Minimum flit latency = 7
Average flit latency = 33.7359
Maximum flit latency = 89
Slowest flit = 3402
Minimum fragmentation = 0
Average fragmentation = 0.269831
Maximum fragmentation = 4
Minimum injected packet rate = 0.015 (at node 23)
Average injected packet rate = 0.0259844
Maximum injected packet rate = 0.038 (at node 18)
Minimum accepted packet rate = 0.013 (at node 15)
Average accepted packet rate = 0.0250156
Maximum accepted packet rate = 0.038 (at node 18)
Minimum injected flit rate = 0.03 (at node 23)
Average injected flit rate = 0.0519375
Maximum injected flit rate = 0.076 (at node 18)
Minimum accepted flit rate = 0.026 (at node 15)
Average accepted flit rate = 0.0500469
Maximum accepted flit rate = 0.076 (at node 18)
Average injected packet length = 1.9988
Average accepted packet length = 2.00062
Total in-flight flits = 123 (0 measured)
Class 1:
Minimum packet latency = 8
Average packet latency = 35.3823
Maximum packet latency = 100
Minimum network latency = 8
Average network latency = 35.3295
Maximum network latency = 100
Slowest packet = 1018
Minimum flit latency = 7
Average flit latency = 34.1276
Maximum flit latency = 99
Slowest flit = 2036
Minimum fragmentation = 0
Average fragmentation = 0.301096
Maximum fragmentation = 4
Minimum injected packet rate = 0.015 (at node 22)
Average injected packet rate = 0.0249688
Maximum injected packet rate = 0.039 (at node 21)
Minimum accepted packet rate = 0.013 (at node 51)
Average accepted packet rate = 0.0242344
Maximum accepted packet rate = 0.037 (at node 42)
Minimum injected flit rate = 0.03 (at node 22)
Average injected flit rate = 0.0499219
Maximum injected flit rate = 0.077 (at node 21)
Minimum accepted flit rate = 0.026 (at node 51)
Average accepted flit rate = 0.0484844
Maximum accepted flit rate = 0.074 (at node 42)
Average injected packet length = 1.99937
Average accepted packet length = 2.00064
Total in-flight flits = 93 (0 measured)
latency change    = 1
throughput change = 1
latency change    = 1
throughput change = 1
0
Class 0:
Minimum packet latency = 8
Average packet latency = 35.4077
Maximum packet latency = 120
Minimum network latency = 8
Average network latency = 35.3587
Maximum network latency = 120
Slowest packet = 5422
Minimum flit latency = 7
Average flit latency = 34.1835
Maximum flit latency = 119
Slowest flit = 10845
Minimum fragmentation = 0
Average fragmentation = 0.271186
Maximum fragmentation = 7
Minimum injected packet rate = 0.0165 (at node 57)
Average injected packet rate = 0.0256953
Maximum injected packet rate = 0.0355 (at node 56)
Minimum accepted packet rate = 0.0165 (at node 15)
Average accepted packet rate = 0.0253516
Maximum accepted packet rate = 0.0345 (at node 7)
Minimum injected flit rate = 0.033 (at node 57)
Average injected flit rate = 0.0513828
Maximum injected flit rate = 0.071 (at node 56)
Minimum accepted flit rate = 0.033 (at node 15)
Average accepted flit rate = 0.0507031
Maximum accepted flit rate = 0.069 (at node 7)
Average injected packet length = 1.9997
Average accepted packet length = 2
Total in-flight flits = 88 (0 measured)
Class 1:
Minimum packet latency = 8
Average packet latency = 36.0338
Maximum packet latency = 112
Minimum network latency = 8
Average network latency = 35.9871
Maximum network latency = 112
Slowest packet = 5468
Minimum flit latency = 7
Average flit latency = 34.788
Maximum flit latency = 111
Slowest flit = 10936
Minimum fragmentation = 0
Average fragmentation = 0.300965
Maximum fragmentation = 6
Minimum injected packet rate = 0.0175 (at node 17)
Average injected packet rate = 0.0247422
Maximum injected packet rate = 0.034 (at node 29)
Minimum accepted packet rate = 0.017 (at node 10)
Average accepted packet rate = 0.0242969
Maximum accepted packet rate = 0.034 (at node 43)
Minimum injected flit rate = 0.035 (at node 17)
Average injected flit rate = 0.0494687
Maximum injected flit rate = 0.068 (at node 29)
Minimum accepted flit rate = 0.034 (at node 10)
Average accepted flit rate = 0.0486328
Maximum accepted flit rate = 0.068 (at node 43)
Average injected packet length = 1.99937
Average accepted packet length = 2.00161
Total in-flight flits = 109 (0 measured)
latency change    = 0.0124848
throughput change = 0.012943
latency change    = 0.0180783
throughput change = 0.00305221
0
Class 0:
Minimum packet latency = 8
Average packet latency = 35.8115
Maximum packet latency = 96
Minimum network latency = 8
Average network latency = 35.7721
Maximum network latency = 96
Slowest packet = 8344
Minimum flit latency = 6
Average flit latency = 34.6071
Maximum flit latency = 95
Slowest flit = 16688
Minimum fragmentation = 0
Average fragmentation = 0.287928
Maximum fragmentation = 7
Minimum injected packet rate = 0.016 (at node 44)
Average injected packet rate = 0.0243125
Maximum injected packet rate = 0.037 (at node 12)
Minimum accepted packet rate = 0.016 (at node 37)
Average accepted packet rate = 0.0242031
Maximum accepted packet rate = 0.039 (at node 33)
Minimum injected flit rate = 0.032 (at node 44)
Average injected flit rate = 0.0486406
Maximum injected flit rate = 0.074 (at node 12)
Minimum accepted flit rate = 0.032 (at node 37)
Average accepted flit rate = 0.0484375
Maximum accepted flit rate = 0.078 (at node 33)
Average injected packet length = 2.00064
Average accepted packet length = 2.00129
Total in-flight flits = 100 (0 measured)
Class 1:
Minimum packet latency = 8
Average packet latency = 34.694
Maximum packet latency = 91
Minimum network latency = 8
Average network latency = 34.6389
Maximum network latency = 91
Slowest packet = 6188
Minimum flit latency = 7
Average flit latency = 33.4759
Maximum flit latency = 90
Slowest flit = 12376
Minimum fragmentation = 0
Average fragmentation = 0.268121
Maximum fragmentation = 5
Minimum injected packet rate = 0.015 (at node 48)
Average injected packet rate = 0.0244844
Maximum injected packet rate = 0.035 (at node 21)
Minimum accepted packet rate = 0.013 (at node 6)
Average accepted packet rate = 0.0243594
Maximum accepted packet rate = 0.034 (at node 4)
Minimum injected flit rate = 0.03 (at node 48)
Average injected flit rate = 0.049
Maximum injected flit rate = 0.07 (at node 21)
Minimum accepted flit rate = 0.026 (at node 6)
Average accepted flit rate = 0.0486875
Maximum accepted flit rate = 0.068 (at node 4)
Average injected packet length = 2.00128
Average accepted packet length = 1.99872
Total in-flight flits = 127 (0 measured)
latency change    = 0.0112754
throughput change = 0.0467742
latency change    = 0.0386155
throughput change = 0.00112323
Warmed up ...Time used is 3000 cycles
1
Class 0:
Minimum packet latency = 8
Average packet latency = 34.6179
Maximum packet latency = 98
Minimum network latency = 8
Average network latency = 34.5765
Maximum network latency = 98
Slowest packet = 11044
Minimum flit latency = 7
Average flit latency = 33.9285
Maximum flit latency = 97
Slowest flit = 22088
Minimum fragmentation = 0
Average fragmentation = 0.265923
Maximum fragmentation = 6
Minimum injected packet rate = 0.017 (at node 7)
Average injected packet rate = 0.0246875
Maximum injected packet rate = 0.031 (at node 0)
Minimum accepted packet rate = 0.015 (at node 56)
Average accepted packet rate = 0.0245938
Maximum accepted packet rate = 0.033 (at node 48)
Minimum injected flit rate = 0.034 (at node 7)
Average injected flit rate = 0.0493281
Maximum injected flit rate = 0.062 (at node 0)
Minimum accepted flit rate = 0.03 (at node 56)
Average accepted flit rate = 0.0491875
Maximum accepted flit rate = 0.066 (at node 48)
Average injected packet length = 1.9981
Average accepted packet length = 2
Total in-flight flits = 112 (112 measured)
Class 1:
Minimum packet latency = 8
Average packet latency = 35.303
Maximum packet latency = 86
Minimum network latency = 8
Average network latency = 35.2538
Maximum network latency = 86
Slowest packet = 11933
Minimum flit latency = 6
Average flit latency = 34.6264
Maximum flit latency = 90
Slowest flit = 18842
Minimum fragmentation = 0
Average fragmentation = 0.28851
Maximum fragmentation = 6
Minimum injected packet rate = 0.016 (at node 58)
Average injected packet rate = 0.0257031
Maximum injected packet rate = 0.037 (at node 40)
Minimum accepted packet rate = 0.016 (at node 24)
Average accepted packet rate = 0.0257656
Maximum accepted packet rate = 0.036 (at node 5)
Minimum injected flit rate = 0.032 (at node 58)
Average injected flit rate = 0.051375
Maximum injected flit rate = 0.074 (at node 40)
Minimum accepted flit rate = 0.032 (at node 24)
Average accepted flit rate = 0.0515313
Maximum accepted flit rate = 0.072 (at node 5)
Average injected packet length = 1.99878
Average accepted packet length = 2
Total in-flight flits = 121 (121 measured)
latency change    = 0.0344802
throughput change = 0.0152478
latency change    = 0.0172505
throughput change = 0.055185
1
Class 0:
Minimum packet latency = 8
Average packet latency = 35.0378
Maximum packet latency = 98
Minimum network latency = 8
Average network latency = 34.9964
Maximum network latency = 98
Slowest packet = 11044
Minimum flit latency = 7
Average flit latency = 34.0725
Maximum flit latency = 97
Slowest flit = 22088
Minimum fragmentation = 0
Average fragmentation = 0.266882
Maximum fragmentation = 6
Minimum injected packet rate = 0.017 (at node 44)
Average injected packet rate = 0.0245938
Maximum injected packet rate = 0.0325 (at node 0)
Minimum accepted packet rate = 0.017 (at node 37)
Average accepted packet rate = 0.0245781
Maximum accepted packet rate = 0.033 (at node 10)
Minimum injected flit rate = 0.034 (at node 44)
Average injected flit rate = 0.0491719
Maximum injected flit rate = 0.065 (at node 0)
Minimum accepted flit rate = 0.034 (at node 37)
Average accepted flit rate = 0.0491484
Maximum accepted flit rate = 0.066 (at node 10)
Average injected packet length = 1.99936
Average accepted packet length = 1.99968
Total in-flight flits = 105 (105 measured)
Class 1:
Minimum packet latency = 8
Average packet latency = 35.5875
Maximum packet latency = 91
Minimum network latency = 8
Average network latency = 35.5464
Maximum network latency = 91
Slowest packet = 15328
Minimum flit latency = 6
Average flit latency = 34.6394
Maximum flit latency = 90
Slowest flit = 18842
Minimum fragmentation = 0
Average fragmentation = 0.279577
Maximum fragmentation = 6
Minimum injected packet rate = 0.017 (at node 2)
Average injected packet rate = 0.0255
Maximum injected packet rate = 0.033 (at node 59)
Minimum accepted packet rate = 0.018 (at node 13)
Average accepted packet rate = 0.0256016
Maximum accepted packet rate = 0.032 (at node 27)
Minimum injected flit rate = 0.034 (at node 2)
Average injected flit rate = 0.051
Maximum injected flit rate = 0.066 (at node 59)
Minimum accepted flit rate = 0.0355 (at node 16)
Average accepted flit rate = 0.0511953
Maximum accepted flit rate = 0.064 (at node 27)
Average injected packet length = 2
Average accepted packet length = 1.99969
Total in-flight flits = 102 (102 measured)
latency change    = 0.0119854
throughput change = 0.000794786
latency change    = 0.00799309
throughput change = 0.00656188
1
Class 0:
Minimum packet latency = 8
Average packet latency = 35.5241
Maximum packet latency = 98
Minimum network latency = 8
Average network latency = 35.4837
Maximum network latency = 98
Slowest packet = 11044
Minimum flit latency = 7
Average flit latency = 34.47
Maximum flit latency = 97
Slowest flit = 22088
Minimum fragmentation = 0
Average fragmentation = 0.272689
Maximum fragmentation = 6
Minimum injected packet rate = 0.0166667 (at node 44)
Average injected packet rate = 0.0248594
Maximum injected packet rate = 0.03 (at node 15)
Minimum accepted packet rate = 0.0166667 (at node 37)
Average accepted packet rate = 0.0247708
Maximum accepted packet rate = 0.0303333 (at node 57)
Minimum injected flit rate = 0.0333333 (at node 44)
Average injected flit rate = 0.0497135
Maximum injected flit rate = 0.06 (at node 15)
Minimum accepted flit rate = 0.0333333 (at node 37)
Average accepted flit rate = 0.0495573
Maximum accepted flit rate = 0.0606667 (at node 57)
Average injected packet length = 1.99979
Average accepted packet length = 2.00063
Total in-flight flits = 131 (131 measured)
Class 1:
Minimum packet latency = 8
Average packet latency = 35.8685
Maximum packet latency = 98
Minimum network latency = 8
Average network latency = 35.8229
Maximum network latency = 97
Slowest packet = 16536
Minimum flit latency = 6
Average flit latency = 34.8127
Maximum flit latency = 96
Slowest flit = 33072
Minimum fragmentation = 0
Average fragmentation = 0.296737
Maximum fragmentation = 7
Minimum injected packet rate = 0.019 (at node 3)
Average injected packet rate = 0.0256823
Maximum injected packet rate = 0.0316667 (at node 38)
Minimum accepted packet rate = 0.0186667 (at node 24)
Average accepted packet rate = 0.0257187
Maximum accepted packet rate = 0.0316667 (at node 52)
Minimum injected flit rate = 0.038 (at node 3)
Average injected flit rate = 0.0513594
Maximum injected flit rate = 0.0633333 (at node 38)
Minimum accepted flit rate = 0.0373333 (at node 24)
Average accepted flit rate = 0.0514427
Maximum accepted flit rate = 0.0633333 (at node 52)
Average injected packet length = 1.9998
Average accepted packet length = 2.0002
Total in-flight flits = 112 (112 measured)
latency change    = 0.0136899
throughput change = 0.00825013
latency change    = 0.00783347
throughput change = 0.00480915
1
Class 0:
Minimum packet latency = 8
Average packet latency = 35.5653
Maximum packet latency = 98
Minimum network latency = 8
Average network latency = 35.5253
Maximum network latency = 98
Slowest packet = 11044
Minimum flit latency = 7
Average flit latency = 34.473
Maximum flit latency = 97
Slowest flit = 22088
Minimum fragmentation = 0
Average fragmentation = 0.273688
Maximum fragmentation = 6
Minimum injected packet rate = 0.01875 (at node 44)
Average injected packet rate = 0.0246367
Maximum injected packet rate = 0.03225 (at node 15)
Minimum accepted packet rate = 0.01875 (at node 37)
Average accepted packet rate = 0.0246055
Maximum accepted packet rate = 0.0315 (at node 57)
Minimum injected flit rate = 0.0375 (at node 44)
Average injected flit rate = 0.0492617
Maximum injected flit rate = 0.0645 (at node 15)
Minimum accepted flit rate = 0.0375 (at node 37)
Average accepted flit rate = 0.0492109
Maximum accepted flit rate = 0.063 (at node 57)
Average injected packet length = 1.99952
Average accepted packet length = 2
Total in-flight flits = 116 (116 measured)
Class 1:
Minimum packet latency = 8
Average packet latency = 35.8462
Maximum packet latency = 103
Minimum network latency = 8
Average network latency = 35.8022
Maximum network latency = 103
Slowest packet = 19697
Minimum flit latency = 6
Average flit latency = 34.7581
Maximum flit latency = 102
Slowest flit = 39394
Minimum fragmentation = 0
Average fragmentation = 0.285979
Maximum fragmentation = 7
Minimum injected packet rate = 0.02 (at node 29)
Average injected packet rate = 0.0255898
Maximum injected packet rate = 0.03225 (at node 30)
Minimum accepted packet rate = 0.02025 (at node 43)
Average accepted packet rate = 0.0255508
Maximum accepted packet rate = 0.0325 (at node 51)
Minimum injected flit rate = 0.04 (at node 29)
Average injected flit rate = 0.0511719
Maximum injected flit rate = 0.0645 (at node 30)
Minimum accepted flit rate = 0.0405 (at node 43)
Average accepted flit rate = 0.0511016
Maximum accepted flit rate = 0.065 (at node 51)
Average injected packet length = 1.99969
Average accepted packet length = 2
Total in-flight flits = 147 (147 measured)
latency change    = 0.0011578
throughput change = 0.00703815
latency change    = 0.000620916
throughput change = 0.00667584
Draining all recorded packets ...
Draining remaining packets ...
Time taken is 7148 cycles
====== Traffic class 0 ======
Overall minimum packet latency = 8 (1 samples)
Overall average packet latency = 35.7065 (1 samples)
Overall maximum packet latency = 98 (1 samples)
Overall minimum network latency = 8 (1 samples)
Overall average network latency = 35.6669 (1 samples)
Overall maximum network latency = 98 (1 samples)
Overall minimum flit latency = 7 (1 samples)
Overall average flit latency = 34.5895 (1 samples)
Overall maximum flit latency = 97 (1 samples)
Overall minimum fragmentation = 0 (1 samples)
Overall average fragmentation = 0.274457 (1 samples)
Overall maximum fragmentation = 6 (1 samples)
Overall minimum injected packet rate = 0.01875 (1 samples)
Overall average injected packet rate = 0.0246367 (1 samples)
Overall maximum injected packet rate = 0.03225 (1 samples)
Overall minimum accepted packet rate = 0.01875 (1 samples)
Overall average accepted packet rate = 0.0246055 (1 samples)
Overall maximum accepted packet rate = 0.0315 (1 samples)
Overall minimum injected flit rate = 0.0375 (1 samples)
Overall average injected flit rate = 0.0492617 (1 samples)
Overall maximum injected flit rate = 0.0645 (1 samples)
Overall minimum accepted flit rate = 0.0375 (1 samples)
Overall average accepted flit rate = 0.0492109 (1 samples)
Overall maximum accepted flit rate = 0.063 (1 samples)
Overall average injected packet size = 1.99952 (1 samples)
Overall average accepted packet size = 2 (1 samples)
Overall average hops = 6.25606 (1 samples)
====== Traffic class 1 ======
Overall minimum packet latency = 8 (1 samples)
Overall average packet latency = 35.9724 (1 samples)
Overall maximum packet latency = 103 (1 samples)
Overall minimum network latency = 8 (1 samples)
Overall average network latency = 35.9283 (1 samples)
Overall maximum network latency = 103 (1 samples)
Overall minimum flit latency = 6 (1 samples)
Overall average flit latency = 34.8588 (1 samples)
Overall maximum flit latency = 102 (1 samples)
Overall minimum fragmentation = 0 (1 samples)
Overall average fragmentation = 0.285605 (1 samples)
Overall maximum fragmentation = 7 (1 samples)
Overall minimum injected packet rate = 0.02 (1 samples)
Overall average injected packet rate = 0.0255898 (1 samples)
Overall maximum injected packet rate = 0.03225 (1 samples)
Overall minimum accepted packet rate = 0.02025 (1 samples)
Overall average accepted packet rate = 0.0255508 (1 samples)
Overall maximum accepted packet rate = 0.0325 (1 samples)
Overall minimum injected flit rate = 0.04 (1 samples)
Overall average injected flit rate = 0.0511719 (1 samples)
Overall maximum injected flit rate = 0.0645 (1 samples)
Overall minimum accepted flit rate = 0.0405 (1 samples)
Overall average accepted flit rate = 0.0511016 (1 samples)
Overall maximum accepted flit rate = 0.065 (1 samples)
Overall average injected packet size = 1.99969 (1 samples)
Overall average accepted packet size = 2 (1 samples)
Overall average hops = 6.3085 (1 samples)
Total run time 3.77766
