BEGIN Configuration File: ./examples/project_inputs/config-iq_tp-uniform_c1ir-0.05_c0ir-0.15_prio-islip
//
// EVC Router Config File -         
//
// Jason Deng, Mike Wang        
//        

//
// Flow control
//

num_vcs     = 5;
vc_buf_size = 6;

wait_for_tail_credit = 0;

vc_allocator = islip;
sw_allocator = islip;
alloc_iters  = 2;

credit_delay   = 2;
routing_delay  = 1;
vc_alloc_delay = 1;
sw_alloc_delay = 1;
st_final_delay = 1;

input_speedup     = 1;
output_speedup    = 1;
internal_speedup  = 1.0;

//
// Traffic
//

sim_type = latency;

warmup_periods = 3;
sample_period  = 1000;
sim_count = 1;

//
//topoogy
//

topology = mesh;
k  = 8;
n  = 2;

//
// Routing
//

router = iq;
routing_function = dor;

packet_size = 2;
use_read_write = 0;

traffic  = uniform;
injection_rate = {0.15,0.05};
injection_rate_uses_flits = 1;

classes = 2;
class_priority = {0,0};
priority = class;

noq = 0;
hold_switch_for_packet = 0;
vc_prioritize_empty = 0;

//
// express virtual channel settings
//

evc = 1;
num_evcs = 1;
evc_prioritized_class = 1;
selective_vc_request = 1;
hold_switch_for_evc_packet = 1;
evc_next_route = 1;

END Configuration File: ./examples/project_inputs/config-iq_tp-uniform_c1ir-0.05_c0ir-0.15_prio-islip
0
Class 0:
Minimum packet latency = 8
Average packet latency = 35.7952
Maximum packet latency = 82
Minimum network latency = 8
Average network latency = 35.6602
Maximum network latency = 82
Slowest packet = 1038
Minimum flit latency = 6
Average flit latency = 34.3323
Maximum flit latency = 81
Slowest flit = 2077
Minimum fragmentation = 0
Average fragmentation = 0.575492
Maximum fragmentation = 10
Minimum injected packet rate = 0.056 (at node 45)
Average injected packet rate = 0.073625
Maximum injected packet rate = 0.097 (at node 26)
Minimum accepted packet rate = 0.056 (at node 36)
Average accepted packet rate = 0.0714063
Maximum accepted packet rate = 0.088 (at node 24)
Minimum injected flit rate = 0.112 (at node 45)
Average injected flit rate = 0.147156
Maximum injected flit rate = 0.194 (at node 26)
Minimum accepted flit rate = 0.112 (at node 36)
Average accepted flit rate = 0.142922
Maximum accepted flit rate = 0.176 (at node 24)
Average injected packet length = 1.99873
Average accepted packet length = 2.00153
Total in-flight flits = 277 (0 measured)
Class 1:
Minimum packet latency = 8
Average packet latency = 35.7492
Maximum packet latency = 81
Minimum network latency = 8
Average network latency = 35.6793
Maximum network latency = 81
Slowest packet = 3468
Minimum flit latency = 6
Average flit latency = 34.2844
Maximum flit latency = 80
Slowest flit = 6937
Minimum fragmentation = 0
Average fragmentation = 0.593573
Maximum fragmentation = 8
Minimum injected packet rate = 0.015 (at node 15)
Average injected packet rate = 0.0257344
Maximum injected packet rate = 0.036 (at node 38)
Minimum accepted packet rate = 0.015 (at node 52)
Average accepted packet rate = 0.0247969
Maximum accepted packet rate = 0.036 (at node 33)
Minimum injected flit rate = 0.03 (at node 15)
Average injected flit rate = 0.0514531
Maximum injected flit rate = 0.072 (at node 38)
Minimum accepted flit rate = 0.03 (at node 52)
Average accepted flit rate = 0.0496094
Maximum accepted flit rate = 0.072 (at node 33)
Average injected packet length = 1.99939
Average accepted packet length = 2.00063
Total in-flight flits = 119 (0 measured)
latency change    = 1
throughput change = 1
latency change    = 1
throughput change = 1
0
Class 0:
Minimum packet latency = 8
Average packet latency = 35.9935
Maximum packet latency = 85
Minimum network latency = 8
Average network latency = 35.8593
Maximum network latency = 84
Slowest packet = 12148
Minimum flit latency = 6
Average flit latency = 34.5333
Maximum flit latency = 83
Slowest flit = 24296
Minimum fragmentation = 0
Average fragmentation = 0.577265
Maximum fragmentation = 10
Minimum injected packet rate = 0.0575 (at node 48)
Average injected packet rate = 0.0744141
Maximum injected packet rate = 0.0875 (at node 26)
Minimum accepted packet rate = 0.0545 (at node 36)
Average accepted packet rate = 0.0728516
Maximum accepted packet rate = 0.084 (at node 14)
Minimum injected flit rate = 0.115 (at node 48)
Average injected flit rate = 0.148758
Maximum injected flit rate = 0.175 (at node 57)
Minimum accepted flit rate = 0.109 (at node 36)
Average accepted flit rate = 0.145758
Maximum accepted flit rate = 0.168 (at node 14)
Average injected packet length = 1.99906
Average accepted packet length = 2.00075
Total in-flight flits = 393 (0 measured)
Class 1:
Minimum packet latency = 8
Average packet latency = 36.3154
Maximum packet latency = 90
Minimum network latency = 8
Average network latency = 36.2451
Maximum network latency = 90
Slowest packet = 10705
Minimum flit latency = 6
Average flit latency = 34.8512
Maximum flit latency = 89
Slowest flit = 21410
Minimum fragmentation = 0
Average fragmentation = 0.584751
Maximum fragmentation = 10
Minimum injected packet rate = 0.0155 (at node 15)
Average injected packet rate = 0.0251016
Maximum injected packet rate = 0.036 (at node 8)
Minimum accepted packet rate = 0.0175 (at node 52)
Average accepted packet rate = 0.0247969
Maximum accepted packet rate = 0.036 (at node 50)
Minimum injected flit rate = 0.031 (at node 15)
Average injected flit rate = 0.0501797
Maximum injected flit rate = 0.072 (at node 8)
Minimum accepted flit rate = 0.035 (at node 52)
Average accepted flit rate = 0.0496094
Maximum accepted flit rate = 0.072 (at node 50)
Average injected packet length = 1.99907
Average accepted packet length = 2.00063
Total in-flight flits = 76 (0 measured)
latency change    = 0.00550857
throughput change = 0.0194565
latency change    = 0.0155902
throughput change = 0
0
Class 0:
Minimum packet latency = 8
Average packet latency = 36.1855
Maximum packet latency = 83
Minimum network latency = 8
Average network latency = 36.0526
Maximum network latency = 83
Slowest packet = 12578
Minimum flit latency = 7
Average flit latency = 34.7194
Maximum flit latency = 82
Slowest flit = 25157
Minimum fragmentation = 0
Average fragmentation = 0.606473
Maximum fragmentation = 11
Minimum injected packet rate = 0.06 (at node 29)
Average injected packet rate = 0.0753281
Maximum injected packet rate = 0.086 (at node 11)
Minimum accepted packet rate = 0.061 (at node 18)
Average accepted packet rate = 0.0757969
Maximum accepted packet rate = 0.092 (at node 44)
Minimum injected flit rate = 0.12 (at node 29)
Average injected flit rate = 0.150734
Maximum injected flit rate = 0.173 (at node 56)
Minimum accepted flit rate = 0.121 (at node 30)
Average accepted flit rate = 0.151547
Maximum accepted flit rate = 0.184 (at node 44)
Average injected packet length = 2.00104
Average accepted packet length = 1.99938
Total in-flight flits = 336 (0 measured)
Class 1:
Minimum packet latency = 8
Average packet latency = 36.2448
Maximum packet latency = 81
Minimum network latency = 8
Average network latency = 36.1697
Maximum network latency = 81
Slowest packet = 13272
Minimum flit latency = 7
Average flit latency = 34.7406
Maximum flit latency = 80
Slowest flit = 26545
Minimum fragmentation = 0
Average fragmentation = 0.602979
Maximum fragmentation = 7
Minimum injected packet rate = 0.013 (at node 51)
Average injected packet rate = 0.024375
Maximum injected packet rate = 0.038 (at node 2)
Minimum accepted packet rate = 0.013 (at node 15)
Average accepted packet rate = 0.024125
Maximum accepted packet rate = 0.037 (at node 11)
Minimum injected flit rate = 0.026 (at node 51)
Average injected flit rate = 0.0487812
Maximum injected flit rate = 0.076 (at node 2)
Minimum accepted flit rate = 0.026 (at node 15)
Average accepted flit rate = 0.04825
Maximum accepted flit rate = 0.074 (at node 11)
Average injected packet length = 2.00128
Average accepted packet length = 2
Total in-flight flits = 108 (0 measured)
latency change    = 0.00530793
throughput change = 0.0381998
latency change    = 0.00194666
throughput change = 0.0281736
Warmed up ...Time used is 3000 cycles
1
Class 0:
Minimum packet latency = 8
Average packet latency = 36.0068
Maximum packet latency = 83
Minimum network latency = 8
Average network latency = 35.8672
Maximum network latency = 83
Slowest packet = 19718
Minimum flit latency = 7
Average flit latency = 34.6801
Maximum flit latency = 82
Slowest flit = 39437
Minimum fragmentation = 0
Average fragmentation = 0.587228
Maximum fragmentation = 10
Minimum injected packet rate = 0.058 (at node 9)
Average injected packet rate = 0.0738906
Maximum injected packet rate = 0.093 (at node 38)
Minimum accepted packet rate = 0.058 (at node 5)
Average accepted packet rate = 0.0738594
Maximum accepted packet rate = 0.092 (at node 25)
Minimum injected flit rate = 0.116 (at node 9)
Average injected flit rate = 0.14775
Maximum injected flit rate = 0.186 (at node 38)
Minimum accepted flit rate = 0.116 (at node 5)
Average accepted flit rate = 0.14775
Maximum accepted flit rate = 0.184 (at node 25)
Average injected packet length = 1.99958
Average accepted packet length = 2.00042
Total in-flight flits = 338 (338 measured)
Class 1:
Minimum packet latency = 8
Average packet latency = 35.6688
Maximum packet latency = 83
Minimum network latency = 8
Average network latency = 35.6042
Maximum network latency = 83
Slowest packet = 19200
Minimum flit latency = 6
Average flit latency = 34.4372
Maximum flit latency = 82
Slowest flit = 38401
Minimum fragmentation = 0
Average fragmentation = 0.56202
Maximum fragmentation = 12
Minimum injected packet rate = 0.012 (at node 10)
Average injected packet rate = 0.0254531
Maximum injected packet rate = 0.042 (at node 41)
Minimum accepted packet rate = 0.015 (at node 36)
Average accepted packet rate = 0.0252969
Maximum accepted packet rate = 0.041 (at node 8)
Minimum injected flit rate = 0.024 (at node 10)
Average injected flit rate = 0.0508906
Maximum injected flit rate = 0.084 (at node 41)
Minimum accepted flit rate = 0.03 (at node 36)
Average accepted flit rate = 0.0506094
Maximum accepted flit rate = 0.082 (at node 8)
Average injected packet length = 1.99939
Average accepted packet length = 2.00062
Total in-flight flits = 127 (127 measured)
latency change    = 0.00496367
throughput change = 0.025698
latency change    = 0.0161491
throughput change = 0.0466193
1
Class 0:
Minimum packet latency = 8
Average packet latency = 35.9955
Maximum packet latency = 90
Minimum network latency = 8
Average network latency = 35.8566
Maximum network latency = 90
Slowest packet = 24970
Minimum flit latency = 7
Average flit latency = 34.5992
Maximum flit latency = 89
Slowest flit = 49940
Minimum fragmentation = 0
Average fragmentation = 0.587257
Maximum fragmentation = 10
Minimum injected packet rate = 0.0625 (at node 10)
Average injected packet rate = 0.074125
Maximum injected packet rate = 0.0865 (at node 3)
Minimum accepted packet rate = 0.058 (at node 5)
Average accepted packet rate = 0.0741641
Maximum accepted packet rate = 0.088 (at node 53)
Minimum injected flit rate = 0.1245 (at node 10)
Average injected flit rate = 0.148234
Maximum injected flit rate = 0.173 (at node 3)
Minimum accepted flit rate = 0.116 (at node 5)
Average accepted flit rate = 0.148375
Maximum accepted flit rate = 0.176 (at node 53)
Average injected packet length = 1.99979
Average accepted packet length = 2.00063
Total in-flight flits = 320 (320 measured)
Class 1:
Minimum packet latency = 8
Average packet latency = 35.8432
Maximum packet latency = 83
Minimum network latency = 8
Average network latency = 35.7791
Maximum network latency = 83
Slowest packet = 19200
Minimum flit latency = 6
Average flit latency = 34.4693
Maximum flit latency = 82
Slowest flit = 38401
Minimum fragmentation = 0
Average fragmentation = 0.587995
Maximum fragmentation = 12
Minimum injected packet rate = 0.0155 (at node 10)
Average injected packet rate = 0.02525
Maximum injected packet rate = 0.039 (at node 41)
Minimum accepted packet rate = 0.0175 (at node 61)
Average accepted packet rate = 0.0252891
Maximum accepted packet rate = 0.0335 (at node 39)
Minimum injected flit rate = 0.031 (at node 10)
Average injected flit rate = 0.0505078
Maximum injected flit rate = 0.078 (at node 41)
Minimum accepted flit rate = 0.0355 (at node 61)
Average accepted flit rate = 0.0505937
Maximum accepted flit rate = 0.0665 (at node 39)
Average injected packet length = 2.00031
Average accepted packet length = 2.00062
Total in-flight flits = 96 (96 measured)
latency change    = 0.000314142
throughput change = 0.0042123
latency change    = 0.00486515
throughput change = 0.000308833
1
Class 0:
Minimum packet latency = 8
Average packet latency = 36.1438
Maximum packet latency = 90
Minimum network latency = 8
Average network latency = 36.0107
Maximum network latency = 90
Slowest packet = 24970
Minimum flit latency = 7
Average flit latency = 34.7178
Maximum flit latency = 89
Slowest flit = 49940
Minimum fragmentation = 0
Average fragmentation = 0.605028
Maximum fragmentation = 11
Minimum injected packet rate = 0.065 (at node 15)
Average injected packet rate = 0.0750677
Maximum injected packet rate = 0.0866667 (at node 3)
Minimum accepted packet rate = 0.0623333 (at node 17)
Average accepted packet rate = 0.0750469
Maximum accepted packet rate = 0.0856667 (at node 9)
Minimum injected flit rate = 0.13 (at node 15)
Average injected flit rate = 0.150135
Maximum injected flit rate = 0.173333 (at node 3)
Minimum accepted flit rate = 0.124667 (at node 17)
Average accepted flit rate = 0.150104
Maximum accepted flit rate = 0.171333 (at node 9)
Average injected packet length = 2
Average accepted packet length = 2.00014
Total in-flight flits = 342 (342 measured)
Class 1:
Minimum packet latency = 8
Average packet latency = 35.8182
Maximum packet latency = 85
Minimum network latency = 8
Average network latency = 35.755
Maximum network latency = 85
Slowest packet = 37288
Minimum flit latency = 6
Average flit latency = 34.4111
Maximum flit latency = 84
Slowest flit = 74576
Minimum fragmentation = 0
Average fragmentation = 0.598497
Maximum fragmentation = 12
Minimum injected packet rate = 0.0166667 (at node 10)
Average injected packet rate = 0.0252604
Maximum injected packet rate = 0.0346667 (at node 17)
Minimum accepted packet rate = 0.0203333 (at node 12)
Average accepted packet rate = 0.0252448
Maximum accepted packet rate = 0.0326667 (at node 30)
Minimum injected flit rate = 0.0333333 (at node 10)
Average injected flit rate = 0.0505208
Maximum injected flit rate = 0.0693333 (at node 17)
Minimum accepted flit rate = 0.0406667 (at node 12)
Average accepted flit rate = 0.0504896
Maximum accepted flit rate = 0.0653333 (at node 30)
Average injected packet length = 2
Average accepted packet length = 2
Total in-flight flits = 114 (114 measured)
latency change    = 0.00410403
throughput change = 0.0115198
latency change    = 0.00069634
throughput change = 0.00206313
Draining all recorded packets ...
Draining remaining packets ...
Time taken is 6119 cycles
====== Traffic class 0 ======
Overall minimum packet latency = 8 (1 samples)
Overall average packet latency = 36.1981 (1 samples)
Overall maximum packet latency = 90 (1 samples)
Overall minimum network latency = 8 (1 samples)
Overall average network latency = 36.0649 (1 samples)
Overall maximum network latency = 90 (1 samples)
Overall minimum flit latency = 7 (1 samples)
Overall average flit latency = 34.7456 (1 samples)
Overall maximum flit latency = 89 (1 samples)
Overall minimum fragmentation = 0 (1 samples)
Overall average fragmentation = 0.604385 (1 samples)
Overall maximum fragmentation = 11 (1 samples)
Overall minimum injected packet rate = 0.065 (1 samples)
Overall average injected packet rate = 0.0750677 (1 samples)
Overall maximum injected packet rate = 0.0866667 (1 samples)
Overall minimum accepted packet rate = 0.0623333 (1 samples)
Overall average accepted packet rate = 0.0750469 (1 samples)
Overall maximum accepted packet rate = 0.0856667 (1 samples)
Overall minimum injected flit rate = 0.13 (1 samples)
Overall average injected flit rate = 0.150135 (1 samples)
Overall maximum injected flit rate = 0.173333 (1 samples)
Overall minimum accepted flit rate = 0.124667 (1 samples)
Overall average accepted flit rate = 0.150104 (1 samples)
Overall maximum accepted flit rate = 0.171333 (1 samples)
Overall average injected packet size = 2 (1 samples)
Overall average accepted packet size = 2.00014 (1 samples)
Overall average hops = 6.2461 (1 samples)
====== Traffic class 1 ======
Overall minimum packet latency = 8 (1 samples)
Overall average packet latency = 35.8977 (1 samples)
Overall maximum packet latency = 85 (1 samples)
Overall minimum network latency = 8 (1 samples)
Overall average network latency = 35.8348 (1 samples)
Overall maximum network latency = 85 (1 samples)
Overall minimum flit latency = 6 (1 samples)
Overall average flit latency = 34.4656 (1 samples)
Overall maximum flit latency = 84 (1 samples)
Overall minimum fragmentation = 0 (1 samples)
Overall average fragmentation = 0.599381 (1 samples)
Overall maximum fragmentation = 12 (1 samples)
Overall minimum injected packet rate = 0.0166667 (1 samples)
Overall average injected packet rate = 0.0252604 (1 samples)
Overall maximum injected packet rate = 0.0346667 (1 samples)
Overall minimum accepted packet rate = 0.0203333 (1 samples)
Overall average accepted packet rate = 0.0252448 (1 samples)
Overall maximum accepted packet rate = 0.0326667 (1 samples)
Overall minimum injected flit rate = 0.0333333 (1 samples)
Overall average injected flit rate = 0.0505208 (1 samples)
Overall maximum injected flit rate = 0.0693333 (1 samples)
Overall minimum accepted flit rate = 0.0406667 (1 samples)
Overall average accepted flit rate = 0.0504896 (1 samples)
Overall maximum accepted flit rate = 0.0653333 (1 samples)
Overall average injected packet size = 2 (1 samples)
Overall average accepted packet size = 2 (1 samples)
Overall average hops = 6.1901 (1 samples)
Total run time 5.37401
