BEGIN Configuration File: ./examples/project_inputs/config-iq_tp-uniform_c1ir-0.05_c0ir-0.31_prio-islip
//
// EVC Router Config File -         
//
// Jason Deng, Mike Wang        
//        

//
// Flow control
//

num_vcs     = 5;
vc_buf_size = 6;

wait_for_tail_credit = 0;

vc_allocator = islip;
sw_allocator = islip;
alloc_iters  = 2;

credit_delay   = 2;
routing_delay  = 1;
vc_alloc_delay = 1;
sw_alloc_delay = 1;
st_final_delay = 1;

input_speedup     = 1;
output_speedup    = 1;
internal_speedup  = 1.0;

//
// Traffic
//

sim_type = latency;

warmup_periods = 3;
sample_period  = 1000;
sim_count = 1;

//
//topoogy
//

topology = mesh;
k  = 8;
n  = 2;

//
// Routing
//

router = iq;
routing_function = dor;

packet_size = 2;
use_read_write = 0;

traffic  = uniform;
injection_rate = {0.31,0.05};
injection_rate_uses_flits = 1;

classes = 2;
class_priority = {0,0};
priority = class;

noq = 0;
hold_switch_for_packet = 0;
vc_prioritize_empty = 0;

//
// express virtual channel settings
//

evc = 1;
num_evcs = 1;
evc_prioritized_class = 1;
selective_vc_request = 1;
hold_switch_for_evc_packet = 1;
evc_next_route = 1;

END Configuration File: ./examples/project_inputs/config-iq_tp-uniform_c1ir-0.05_c0ir-0.31_prio-islip
0
Class 0:
Minimum packet latency = 8
Average packet latency = 43.8931
Maximum packet latency = 143
Minimum network latency = 8
Average network latency = 43.5661
Maximum network latency = 143
Slowest packet = 2128
Minimum flit latency = 7
Average flit latency = 41.7806
Maximum flit latency = 142
Slowest flit = 4257
Minimum fragmentation = 0
Average fragmentation = 1.50458
Maximum fragmentation = 19
Minimum injected packet rate = 0.129 (at node 0)
Average injected packet rate = 0.153891
Maximum injected packet rate = 0.174 (at node 18)
Minimum accepted packet rate = 0.121 (at node 36)
Average accepted packet rate = 0.146563
Maximum accepted packet rate = 0.173 (at node 39)
Minimum injected flit rate = 0.258 (at node 0)
Average injected flit rate = 0.307625
Maximum injected flit rate = 0.348 (at node 18)
Minimum accepted flit rate = 0.242 (at node 36)
Average accepted flit rate = 0.293594
Maximum accepted flit rate = 0.346 (at node 39)
Average injected packet length = 1.99898
Average accepted packet length = 2.0032
Total in-flight flits = 908 (0 measured)
Class 1:
Minimum packet latency = 8
Average packet latency = 44.5651
Maximum packet latency = 126
Minimum network latency = 8
Average network latency = 44.4533
Maximum network latency = 126
Slowest packet = 1944
Minimum flit latency = 7
Average flit latency = 42.4977
Maximum flit latency = 125
Slowest flit = 3889
Minimum fragmentation = 0
Average fragmentation = 1.52703
Maximum fragmentation = 15
Minimum injected packet rate = 0.015 (at node 30)
Average injected packet rate = 0.0266094
Maximum injected packet rate = 0.039 (at node 4)
Minimum accepted packet rate = 0.014 (at node 28)
Average accepted packet rate = 0.0254375
Maximum accepted packet rate = 0.041 (at node 51)
Minimum injected flit rate = 0.03 (at node 30)
Average injected flit rate = 0.0532031
Maximum injected flit rate = 0.078 (at node 4)
Minimum accepted flit rate = 0.028 (at node 28)
Average accepted flit rate = 0.0509844
Maximum accepted flit rate = 0.082 (at node 51)
Average injected packet length = 1.99941
Average accepted packet length = 2.0043
Total in-flight flits = 143 (0 measured)
latency change    = 1
throughput change = 1
latency change    = 1
throughput change = 1
0
Class 0:
Minimum packet latency = 8
Average packet latency = 44.5751
Maximum packet latency = 153
Minimum network latency = 8
Average network latency = 44.2562
Maximum network latency = 153
Slowest packet = 12780
Minimum flit latency = 6
Average flit latency = 42.455
Maximum flit latency = 152
Slowest flit = 25561
Minimum fragmentation = 0
Average fragmentation = 1.52946
Maximum fragmentation = 23
Minimum injected packet rate = 0.1345 (at node 4)
Average injected packet rate = 0.154359
Maximum injected packet rate = 0.1725 (at node 25)
Minimum accepted packet rate = 0.1325 (at node 52)
Average accepted packet rate = 0.151008
Maximum accepted packet rate = 0.167 (at node 14)
Minimum injected flit rate = 0.269 (at node 4)
Average injected flit rate = 0.308648
Maximum injected flit rate = 0.345 (at node 25)
Minimum accepted flit rate = 0.2655 (at node 52)
Average accepted flit rate = 0.302227
Maximum accepted flit rate = 0.334 (at node 14)
Average injected packet length = 1.99954
Average accepted packet length = 2.0014
Total in-flight flits = 835 (0 measured)
Class 1:
Minimum packet latency = 8
Average packet latency = 44.9761
Maximum packet latency = 151
Minimum network latency = 8
Average network latency = 44.8675
Maximum network latency = 151
Slowest packet = 12439
Minimum flit latency = 6
Average flit latency = 42.878
Maximum flit latency = 150
Slowest flit = 24879
Minimum fragmentation = 0
Average fragmentation = 1.57493
Maximum fragmentation = 16
Minimum injected packet rate = 0.013 (at node 30)
Average injected packet rate = 0.0256797
Maximum injected packet rate = 0.0345 (at node 42)
Minimum accepted packet rate = 0.0175 (at node 42)
Average accepted packet rate = 0.0251797
Maximum accepted packet rate = 0.0335 (at node 51)
Minimum injected flit rate = 0.026 (at node 30)
Average injected flit rate = 0.0513359
Maximum injected flit rate = 0.0685 (at node 42)
Minimum accepted flit rate = 0.035 (at node 42)
Average accepted flit rate = 0.0503984
Maximum accepted flit rate = 0.067 (at node 51)
Average injected packet length = 1.99909
Average accepted packet length = 2.00155
Total in-flight flits = 123 (0 measured)
latency change    = 0.0153006
throughput change = 0.028564
latency change    = 0.00913815
throughput change = 0.0116261
0
Class 0:
Minimum packet latency = 8
Average packet latency = 44.0202
Maximum packet latency = 143
Minimum network latency = 8
Average network latency = 43.6964
Maximum network latency = 143
Slowest packet = 28942
Minimum flit latency = 7
Average flit latency = 41.8852
Maximum flit latency = 142
Slowest flit = 57885
Minimum fragmentation = 0
Average fragmentation = 1.55611
Maximum fragmentation = 22
Minimum injected packet rate = 0.126 (at node 24)
Average injected packet rate = 0.155297
Maximum injected packet rate = 0.185 (at node 59)
Minimum accepted packet rate = 0.134 (at node 25)
Average accepted packet rate = 0.155797
Maximum accepted packet rate = 0.177 (at node 53)
Minimum injected flit rate = 0.252 (at node 24)
Average injected flit rate = 0.310578
Maximum injected flit rate = 0.37 (at node 59)
Minimum accepted flit rate = 0.268 (at node 25)
Average accepted flit rate = 0.311641
Maximum accepted flit rate = 0.353 (at node 53)
Average injected packet length = 1.9999
Average accepted packet length = 2.0003
Total in-flight flits = 764 (0 measured)
Class 1:
Minimum packet latency = 8
Average packet latency = 44.2327
Maximum packet latency = 114
Minimum network latency = 8
Average network latency = 44.1128
Maximum network latency = 114
Slowest packet = 27880
Minimum flit latency = 7
Average flit latency = 42.1443
Maximum flit latency = 112
Slowest flit = 55760
Minimum fragmentation = 0
Average fragmentation = 1.51346
Maximum fragmentation = 18
Minimum injected packet rate = 0.012 (at node 36)
Average injected packet rate = 0.0244531
Maximum injected packet rate = 0.035 (at node 9)
Minimum accepted packet rate = 0.01 (at node 53)
Average accepted packet rate = 0.024375
Maximum accepted packet rate = 0.035 (at node 9)
Minimum injected flit rate = 0.024 (at node 36)
Average injected flit rate = 0.0489219
Maximum injected flit rate = 0.069 (at node 9)
Minimum accepted flit rate = 0.02 (at node 53)
Average accepted flit rate = 0.0487344
Maximum accepted flit rate = 0.07 (at node 9)
Average injected packet length = 2.00064
Average accepted packet length = 1.99936
Total in-flight flits = 134 (0 measured)
latency change    = 0.0126064
throughput change = 0.0302081
latency change    = 0.016807
throughput change = 0.0341456
Warmed up ...Time used is 3000 cycles
1
Class 0:
Minimum packet latency = 8
Average packet latency = 43.8977
Maximum packet latency = 153
Minimum network latency = 8
Average network latency = 43.5602
Maximum network latency = 153
Slowest packet = 35868
Minimum flit latency = 7
Average flit latency = 42.0471
Maximum flit latency = 152
Slowest flit = 71737
Minimum fragmentation = 0
Average fragmentation = 1.45982
Maximum fragmentation = 19
Minimum injected packet rate = 0.126 (at node 21)
Average injected packet rate = 0.153406
Maximum injected packet rate = 0.18 (at node 41)
Minimum accepted packet rate = 0.133 (at node 39)
Average accepted packet rate = 0.152797
Maximum accepted packet rate = 0.178 (at node 53)
Minimum injected flit rate = 0.252 (at node 21)
Average injected flit rate = 0.306875
Maximum injected flit rate = 0.36 (at node 41)
Minimum accepted flit rate = 0.266 (at node 49)
Average accepted flit rate = 0.3055
Maximum accepted flit rate = 0.357 (at node 53)
Average injected packet length = 2.00041
Average accepted packet length = 1.99939
Total in-flight flits = 848 (848 measured)
Class 1:
Minimum packet latency = 8
Average packet latency = 43.4926
Maximum packet latency = 115
Minimum network latency = 8
Average network latency = 43.3832
Maximum network latency = 115
Slowest packet = 38476
Minimum flit latency = 6
Average flit latency = 41.5721
Maximum flit latency = 114
Slowest flit = 76952
Minimum fragmentation = 0
Average fragmentation = 1.46926
Maximum fragmentation = 15
Minimum injected packet rate = 0.014 (at node 50)
Average injected packet rate = 0.0254375
Maximum injected packet rate = 0.037 (at node 22)
Minimum accepted packet rate = 0.009 (at node 63)
Average accepted packet rate = 0.0252188
Maximum accepted packet rate = 0.037 (at node 2)
Minimum injected flit rate = 0.028 (at node 50)
Average injected flit rate = 0.0508594
Maximum injected flit rate = 0.074 (at node 22)
Minimum accepted flit rate = 0.018 (at node 63)
Average accepted flit rate = 0.0505
Maximum accepted flit rate = 0.074 (at node 2)
Average injected packet length = 1.99939
Average accepted packet length = 2.00248
Total in-flight flits = 158 (158 measured)
latency change    = 0.00279017
throughput change = 0.0201002
latency change    = 0.0170175
throughput change = 0.0349629
1
Class 0:
Minimum packet latency = 8
Average packet latency = 43.9083
Maximum packet latency = 153
Minimum network latency = 8
Average network latency = 43.5775
Maximum network latency = 153
Slowest packet = 35868
Minimum flit latency = 7
Average flit latency = 41.9388
Maximum flit latency = 152
Slowest flit = 71737
Minimum fragmentation = 0
Average fragmentation = 1.46371
Maximum fragmentation = 19
Minimum injected packet rate = 0.1305 (at node 21)
Average injected packet rate = 0.152742
Maximum injected packet rate = 0.171 (at node 26)
Minimum accepted packet rate = 0.137 (at node 39)
Average accepted packet rate = 0.152406
Maximum accepted packet rate = 0.1715 (at node 57)
Minimum injected flit rate = 0.261 (at node 21)
Average injected flit rate = 0.305484
Maximum injected flit rate = 0.3415 (at node 26)
Minimum accepted flit rate = 0.274 (at node 39)
Average accepted flit rate = 0.304734
Maximum accepted flit rate = 0.343 (at node 57)
Average injected packet length = 2
Average accepted packet length = 1.99949
Total in-flight flits = 860 (860 measured)
Class 1:
Minimum packet latency = 8
Average packet latency = 43.3772
Maximum packet latency = 123
Minimum network latency = 8
Average network latency = 43.2767
Maximum network latency = 123
Slowest packet = 46858
Minimum flit latency = 6
Average flit latency = 41.381
Maximum flit latency = 122
Slowest flit = 93716
Minimum fragmentation = 0
Average fragmentation = 1.47707
Maximum fragmentation = 20
Minimum injected packet rate = 0.018 (at node 13)
Average injected packet rate = 0.0253594
Maximum injected packet rate = 0.035 (at node 45)
Minimum accepted packet rate = 0.0155 (at node 63)
Average accepted packet rate = 0.0254141
Maximum accepted packet rate = 0.0325 (at node 44)
Minimum injected flit rate = 0.0355 (at node 13)
Average injected flit rate = 0.0507031
Maximum injected flit rate = 0.07 (at node 45)
Minimum accepted flit rate = 0.031 (at node 63)
Average accepted flit rate = 0.0508281
Maximum accepted flit rate = 0.065 (at node 44)
Average injected packet length = 1.99938
Average accepted packet length = 2
Total in-flight flits = 120 (120 measured)
latency change    = 0.00024252
throughput change = 0.00251243
latency change    = 0.00265942
throughput change = 0.00645558
1
Class 0:
Minimum packet latency = 8
Average packet latency = 44.3905
Maximum packet latency = 168
Minimum network latency = 8
Average network latency = 44.0593
Maximum network latency = 167
Slowest packet = 59762
Minimum flit latency = 6
Average flit latency = 42.3515
Maximum flit latency = 166
Slowest flit = 119524
Minimum fragmentation = 0
Average fragmentation = 1.49799
Maximum fragmentation = 23
Minimum injected packet rate = 0.137667 (at node 21)
Average injected packet rate = 0.154083
Maximum injected packet rate = 0.171667 (at node 26)
Minimum accepted packet rate = 0.137333 (at node 6)
Average accepted packet rate = 0.153781
Maximum accepted packet rate = 0.169667 (at node 60)
Minimum injected flit rate = 0.275333 (at node 21)
Average injected flit rate = 0.308182
Maximum injected flit rate = 0.343333 (at node 26)
Minimum accepted flit rate = 0.274667 (at node 6)
Average accepted flit rate = 0.307563
Maximum accepted flit rate = 0.339333 (at node 60)
Average injected packet length = 2.0001
Average accepted packet length = 2
Total in-flight flits = 880 (880 measured)
Class 1:
Minimum packet latency = 8
Average packet latency = 43.9433
Maximum packet latency = 151
Minimum network latency = 8
Average network latency = 43.8435
Maximum network latency = 151
Slowest packet = 60091
Minimum flit latency = 6
Average flit latency = 41.9132
Maximum flit latency = 150
Slowest flit = 120183
Minimum fragmentation = 0
Average fragmentation = 1.49866
Maximum fragmentation = 20
Minimum injected packet rate = 0.0206667 (at node 13)
Average injected packet rate = 0.0256458
Maximum injected packet rate = 0.0306667 (at node 8)
Minimum accepted packet rate = 0.0186667 (at node 27)
Average accepted packet rate = 0.025625
Maximum accepted packet rate = 0.0326667 (at node 7)
Minimum injected flit rate = 0.0413333 (at node 13)
Average injected flit rate = 0.0512917
Maximum injected flit rate = 0.0613333 (at node 8)
Minimum accepted flit rate = 0.0373333 (at node 27)
Average accepted flit rate = 0.0512604
Maximum accepted flit rate = 0.0653333 (at node 7)
Average injected packet length = 2
Average accepted packet length = 2.00041
Total in-flight flits = 140 (140 measured)
latency change    = 0.010863
throughput change = 0.00919529
latency change    = 0.0128828
throughput change = 0.00843325
Draining all recorded packets ...
Draining remaining packets ...
Time taken is 6176 cycles
====== Traffic class 0 ======
Overall minimum packet latency = 8 (1 samples)
Overall average packet latency = 44.534 (1 samples)
Overall maximum packet latency = 168 (1 samples)
Overall minimum network latency = 8 (1 samples)
Overall average network latency = 44.2022 (1 samples)
Overall maximum network latency = 167 (1 samples)
Overall minimum flit latency = 6 (1 samples)
Overall average flit latency = 42.4488 (1 samples)
Overall maximum flit latency = 166 (1 samples)
Overall minimum fragmentation = 0 (1 samples)
Overall average fragmentation = 1.50034 (1 samples)
Overall maximum fragmentation = 23 (1 samples)
Overall minimum injected packet rate = 0.137667 (1 samples)
Overall average injected packet rate = 0.154083 (1 samples)
Overall maximum injected packet rate = 0.171667 (1 samples)
Overall minimum accepted packet rate = 0.137333 (1 samples)
Overall average accepted packet rate = 0.153781 (1 samples)
Overall maximum accepted packet rate = 0.169667 (1 samples)
Overall minimum injected flit rate = 0.275333 (1 samples)
Overall average injected flit rate = 0.308182 (1 samples)
Overall maximum injected flit rate = 0.343333 (1 samples)
Overall minimum accepted flit rate = 0.274667 (1 samples)
Overall average accepted flit rate = 0.307563 (1 samples)
Overall maximum accepted flit rate = 0.339333 (1 samples)
Overall average injected packet size = 2.0001 (1 samples)
Overall average accepted packet size = 2 (1 samples)
Overall average hops = 6.2547 (1 samples)
====== Traffic class 1 ======
Overall minimum packet latency = 8 (1 samples)
Overall average packet latency = 44.0865 (1 samples)
Overall maximum packet latency = 151 (1 samples)
Overall minimum network latency = 8 (1 samples)
Overall average network latency = 43.9864 (1 samples)
Overall maximum network latency = 151 (1 samples)
Overall minimum flit latency = 6 (1 samples)
Overall average flit latency = 42.0359 (1 samples)
Overall maximum flit latency = 150 (1 samples)
Overall minimum fragmentation = 0 (1 samples)
Overall average fragmentation = 1.50345 (1 samples)
Overall maximum fragmentation = 20 (1 samples)
Overall minimum injected packet rate = 0.0206667 (1 samples)
Overall average injected packet rate = 0.0256458 (1 samples)
Overall maximum injected packet rate = 0.0306667 (1 samples)
Overall minimum accepted packet rate = 0.0186667 (1 samples)
Overall average accepted packet rate = 0.025625 (1 samples)
Overall maximum accepted packet rate = 0.0326667 (1 samples)
Overall minimum injected flit rate = 0.0413333 (1 samples)
Overall average injected flit rate = 0.0512917 (1 samples)
Overall maximum injected flit rate = 0.0613333 (1 samples)
Overall minimum accepted flit rate = 0.0373333 (1 samples)
Overall average accepted flit rate = 0.0512604 (1 samples)
Overall maximum accepted flit rate = 0.0653333 (1 samples)
Overall average injected packet size = 2 (1 samples)
Overall average accepted packet size = 2.00041 (1 samples)
Overall average hops = 6.20715 (1 samples)
Total run time 9.05214
