BEGIN Configuration File: ./examples/project_inputs/config-iq_tp-bitcomp_c1ir-0.05_c0ir-0.25_prio-islip
//
// EVC Router Config File -         
//
// Jason Deng, Mike Wang        
//        

//
// Flow control
//

num_vcs     = 5;
vc_buf_size = 6;

wait_for_tail_credit = 0;

vc_allocator = islip;
sw_allocator = islip;
alloc_iters  = 2;

credit_delay   = 2;
routing_delay  = 1;
vc_alloc_delay = 1;
sw_alloc_delay = 1;
st_final_delay = 1;

input_speedup     = 1;
output_speedup    = 1;
internal_speedup  = 1.0;

//
// Traffic
//

sim_type = latency;

warmup_periods = 3;
sample_period  = 1000;
sim_count = 1;

//
//topoogy
//

topology = mesh;
k  = 8;
n  = 2;

//
// Routing
//

router = iq;
routing_function = dor;

packet_size = 2;
use_read_write = 0;

traffic  = bitcomp;
injection_rate = {0.25,0.05};
injection_rate_uses_flits = 1;

classes = 2;
class_priority = {0,0};
priority = class;

noq = 0;
hold_switch_for_packet = 0;
vc_prioritize_empty = 0;

//
// express virtual channel settings
//

evc = 1;
num_evcs = 1;
evc_prioritized_class = 1;
selective_vc_request = 1;
hold_switch_for_evc_packet = 1;
evc_next_route = 1;

END Configuration File: ./examples/project_inputs/config-iq_tp-bitcomp_c1ir-0.05_c0ir-0.25_prio-islip
0
Class 0:
Minimum packet latency = 18
Average packet latency = 147.928
Maximum packet latency = 645
Minimum network latency = 18
Average network latency = 147.174
Maximum network latency = 644
Slowest packet = 3018
Minimum flit latency = 17
Average flit latency = 145.613
Maximum flit latency = 643
Slowest flit = 6036
Minimum fragmentation = 0
Average fragmentation = 1.17754
Maximum fragmentation = 21
Minimum injected packet rate = 0.063 (at node 9)
Average injected packet rate = 0.10275
Maximum injected packet rate = 0.137 (at node 3)
Minimum accepted packet rate = 0.039 (at node 40)
Average accepted packet rate = 0.0783281
Maximum accepted packet rate = 0.128 (at node 28)
Minimum injected flit rate = 0.126 (at node 9)
Average injected flit rate = 0.205344
Maximum injected flit rate = 0.274 (at node 3)
Minimum accepted flit rate = 0.078 (at node 40)
Average accepted flit rate = 0.156828
Maximum accepted flit rate = 0.256 (at node 28)
Average injected packet length = 1.99848
Average accepted packet length = 2.00219
Total in-flight flits = 3189 (0 measured)
Class 1:
Minimum packet latency = 18
Average packet latency = 154.642
Maximum packet latency = 573
Minimum network latency = 18
Average network latency = 154.382
Maximum network latency = 573
Slowest packet = 3195
Minimum flit latency = 17
Average flit latency = 152.585
Maximum flit latency = 572
Slowest flit = 6390
Minimum fragmentation = 0
Average fragmentation = 1.18
Maximum fragmentation = 13
Minimum injected packet rate = 0.01 (at node 49)
Average injected packet rate = 0.0234375
Maximum injected packet rate = 0.04 (at node 38)
Minimum accepted packet rate = 0.003 (at node 14)
Average accepted packet rate = 0.0164063
Maximum accepted packet rate = 0.034 (at node 36)
Minimum injected flit rate = 0.02 (at node 49)
Average injected flit rate = 0.0468125
Maximum injected flit rate = 0.08 (at node 38)
Minimum accepted flit rate = 0.006 (at node 14)
Average accepted flit rate = 0.0328125
Maximum accepted flit rate = 0.068 (at node 36)
Average injected packet length = 1.99733
Average accepted packet length = 2
Total in-flight flits = 964 (0 measured)
latency change    = 1
throughput change = 1
latency change    = 1
throughput change = 1
0
Class 0:
Minimum packet latency = 18
Average packet latency = 262.099
Maximum packet latency = 1547
Minimum network latency = 18
Average network latency = 225.242
Maximum network latency = 1547
Slowest packet = 3815
Minimum flit latency = 17
Average flit latency = 223.29
Maximum flit latency = 1546
Slowest flit = 7630
Minimum fragmentation = 0
Average fragmentation = 1.21306
Maximum fragmentation = 21
Minimum injected packet rate = 0.0355 (at node 9)
Average injected packet rate = 0.0812266
Maximum injected packet rate = 0.1375 (at node 43)
Minimum accepted packet rate = 0.0265 (at node 55)
Average accepted packet rate = 0.0707344
Maximum accepted packet rate = 0.1285 (at node 20)
Minimum injected flit rate = 0.071 (at node 9)
Average injected flit rate = 0.162375
Maximum injected flit rate = 0.275 (at node 43)
Minimum accepted flit rate = 0.053 (at node 55)
Average accepted flit rate = 0.141531
Maximum accepted flit rate = 0.257 (at node 20)
Average injected packet length = 1.99904
Average accepted packet length = 2.00088
Total in-flight flits = 2758 (0 measured)
Class 1:
Minimum packet latency = 18
Average packet latency = 279.892
Maximum packet latency = 1422
Minimum network latency = 18
Average network latency = 268.147
Maximum network latency = 1421
Slowest packet = 3731
Minimum flit latency = 17
Average flit latency = 265.912
Maximum flit latency = 1420
Slowest flit = 7462
Minimum fragmentation = 0
Average fragmentation = 1.07116
Maximum fragmentation = 13
Minimum injected packet rate = 0.009 (at node 49)
Average injected packet rate = 0.0220234
Maximum injected packet rate = 0.0345 (at node 27)
Minimum accepted packet rate = 0.0015 (at node 14)
Average accepted packet rate = 0.0167969
Maximum accepted packet rate = 0.034 (at node 36)
Minimum injected flit rate = 0.018 (at node 49)
Average injected flit rate = 0.0440234
Maximum injected flit rate = 0.069 (at node 27)
Minimum accepted flit rate = 0.003 (at node 14)
Average accepted flit rate = 0.0336172
Maximum accepted flit rate = 0.068 (at node 36)
Average injected packet length = 1.99894
Average accepted packet length = 2.0014
Total in-flight flits = 1399 (0 measured)
latency change    = 0.435602
throughput change = 0.108081
latency change    = 0.447495
throughput change = 0.0239368
0
Class 0:
Minimum packet latency = 24
Average packet latency = 685.842
Maximum packet latency = 2472
Minimum network latency = 24
Average network latency = 360.521
Maximum network latency = 2460
Slowest packet = 4990
Minimum flit latency = 22
Average flit latency = 358.153
Maximum flit latency = 2459
Slowest flit = 9981
Minimum fragmentation = 0
Average fragmentation = 1.29807
Maximum fragmentation = 18
Minimum injected packet rate = 0.006 (at node 49)
Average injected packet rate = 0.05725
Maximum injected packet rate = 0.137 (at node 35)
Minimum accepted packet rate = 0.009 (at node 9)
Average accepted packet rate = 0.0576094
Maximum accepted packet rate = 0.13 (at node 28)
Minimum injected flit rate = 0.012 (at node 49)
Average injected flit rate = 0.114516
Maximum injected flit rate = 0.274 (at node 35)
Minimum accepted flit rate = 0.018 (at node 9)
Average accepted flit rate = 0.115297
Maximum accepted flit rate = 0.259 (at node 28)
Average injected packet length = 2.00027
Average accepted packet length = 2.00136
Total in-flight flits = 2713 (0 measured)
Class 1:
Minimum packet latency = 28
Average packet latency = 566.334
Maximum packet latency = 2300
Minimum network latency = 28
Average network latency = 492.12
Maximum network latency = 2246
Slowest packet = 4665
Minimum flit latency = 26
Average flit latency = 489.298
Maximum flit latency = 2245
Slowest flit = 12496
Minimum fragmentation = 0
Average fragmentation = 0.932647
Maximum fragmentation = 18
Minimum injected packet rate = 0.007 (at node 9)
Average injected packet rate = 0.0202813
Maximum injected packet rate = 0.035 (at node 3)
Minimum accepted packet rate = 0.002 (at node 48)
Average accepted packet rate = 0.0197188
Maximum accepted packet rate = 0.041 (at node 60)
Minimum injected flit rate = 0.014 (at node 9)
Average injected flit rate = 0.0405156
Maximum injected flit rate = 0.071 (at node 3)
Minimum accepted flit rate = 0.004 (at node 48)
Average accepted flit rate = 0.0394375
Maximum accepted flit rate = 0.082 (at node 60)
Average injected packet length = 1.99769
Average accepted packet length = 2
Total in-flight flits = 1471 (0 measured)
latency change    = 0.617844
throughput change = 0.227538
latency change    = 0.505782
throughput change = 0.147583
Average latency for class 0 exceeded 500 cycles. Aborting simulation.
Too many sample periods needed to converge
Simulation unstable, ending ...
Total run time 3.60003
