BEGIN Configuration File: ./examples/project_inputs/config-iq_tp-bitcomp_c1ir-0.05_c0ir-0.29_prio-islip
//
// EVC Router Config File -         
//
// Jason Deng, Mike Wang        
//        

//
// Flow control
//

num_vcs     = 5;
vc_buf_size = 6;

wait_for_tail_credit = 0;

vc_allocator = islip;
sw_allocator = islip;
alloc_iters  = 2;

credit_delay   = 2;
routing_delay  = 1;
vc_alloc_delay = 1;
sw_alloc_delay = 1;
st_final_delay = 1;

input_speedup     = 1;
output_speedup    = 1;
internal_speedup  = 1.0;

//
// Traffic
//

sim_type = latency;

warmup_periods = 3;
sample_period  = 1000;
sim_count = 1;

//
//topoogy
//

topology = mesh;
k  = 8;
n  = 2;

//
// Routing
//

router = iq;
routing_function = dor;

packet_size = 2;
use_read_write = 0;

traffic  = bitcomp;
injection_rate = {0.29,0.05};
injection_rate_uses_flits = 1;

classes = 2;
class_priority = {0,0};
priority = class;

noq = 0;
hold_switch_for_packet = 0;
vc_prioritize_empty = 0;

//
// express virtual channel settings
//

evc = 1;
num_evcs = 1;
evc_prioritized_class = 1;
selective_vc_request = 1;
hold_switch_for_evc_packet = 1;
evc_next_route = 1;

END Configuration File: ./examples/project_inputs/config-iq_tp-bitcomp_c1ir-0.05_c0ir-0.29_prio-islip
0
Class 0:
Minimum packet latency = 18
Average packet latency = 177.782
Maximum packet latency = 772
Minimum network latency = 18
Average network latency = 174.684
Maximum network latency = 771
Slowest packet = 2378
Minimum flit latency = 17
Average flit latency = 172.976
Maximum flit latency = 770
Slowest flit = 4756
Minimum fragmentation = 0
Average fragmentation = 1.19064
Maximum fragmentation = 21
Minimum injected packet rate = 0.05 (at node 22)
Average injected packet rate = 0.0926875
Maximum injected packet rate = 0.161 (at node 35)
Minimum accepted packet rate = 0.031 (at node 40)
Average accepted packet rate = 0.0690937
Maximum accepted packet rate = 0.155 (at node 28)
Minimum injected flit rate = 0.1 (at node 22)
Average injected flit rate = 0.185234
Maximum injected flit rate = 0.322 (at node 35)
Minimum accepted flit rate = 0.062 (at node 40)
Average accepted flit rate = 0.138344
Maximum accepted flit rate = 0.31 (at node 28)
Average injected packet length = 1.99848
Average accepted packet length = 2.00226
Total in-flight flits = 3100 (0 measured)
Class 1:
Minimum packet latency = 18
Average packet latency = 186.124
Maximum packet latency = 735
Minimum network latency = 18
Average network latency = 184.626
Maximum network latency = 735
Slowest packet = 2686
Minimum flit latency = 17
Average flit latency = 183.355
Maximum flit latency = 734
Slowest flit = 5372
Minimum fragmentation = 0
Average fragmentation = 1.13606
Maximum fragmentation = 13
Minimum injected packet rate = 0.013 (at node 1)
Average injected packet rate = 0.0207188
Maximum injected packet rate = 0.029 (at node 24)
Minimum accepted packet rate = 0.005 (at node 23)
Average accepted packet rate = 0.0118281
Maximum accepted packet rate = 0.027 (at node 35)
Minimum injected flit rate = 0.026 (at node 1)
Average injected flit rate = 0.0413906
Maximum injected flit rate = 0.058 (at node 24)
Minimum accepted flit rate = 0.01 (at node 23)
Average accepted flit rate = 0.0237031
Maximum accepted flit rate = 0.054 (at node 35)
Average injected packet length = 1.99774
Average accepted packet length = 2.00396
Total in-flight flits = 1215 (0 measured)
latency change    = 1
throughput change = 1
latency change    = 1
throughput change = 1
0
Class 0:
Minimum packet latency = 18
Average packet latency = 326.632
Maximum packet latency = 1716
Minimum network latency = 18
Average network latency = 264.086
Maximum network latency = 1716
Slowest packet = 2975
Minimum flit latency = 17
Average flit latency = 261.993
Maximum flit latency = 1715
Slowest flit = 5950
Minimum fragmentation = 0
Average fragmentation = 1.25101
Maximum fragmentation = 21
Minimum injected packet rate = 0.029 (at node 6)
Average injected packet rate = 0.0707109
Maximum injected packet rate = 0.152 (at node 28)
Minimum accepted packet rate = 0.0205 (at node 57)
Average accepted packet rate = 0.0601953
Maximum accepted packet rate = 0.1485 (at node 28)
Minimum injected flit rate = 0.058 (at node 6)
Average injected flit rate = 0.141383
Maximum injected flit rate = 0.304 (at node 28)
Minimum accepted flit rate = 0.041 (at node 57)
Average accepted flit rate = 0.120477
Maximum accepted flit rate = 0.297 (at node 28)
Average injected packet length = 1.99945
Average accepted packet length = 2.00143
Total in-flight flits = 2779 (0 measured)
Class 1:
Minimum packet latency = 18
Average packet latency = 362.802
Maximum packet latency = 1642
Minimum network latency = 18
Average network latency = 339.216
Maximum network latency = 1642
Slowest packet = 3592
Minimum flit latency = 17
Average flit latency = 336.551
Maximum flit latency = 1641
Slowest flit = 7184
Minimum fragmentation = 0
Average fragmentation = 1.1098
Maximum fragmentation = 16
Minimum injected packet rate = 0.01 (at node 9)
Average injected packet rate = 0.0197578
Maximum injected packet rate = 0.0315 (at node 59)
Minimum accepted packet rate = 0.003 (at node 55)
Average accepted packet rate = 0.0139453
Maximum accepted packet rate = 0.026 (at node 35)
Minimum injected flit rate = 0.02 (at node 9)
Average injected flit rate = 0.0394531
Maximum injected flit rate = 0.063 (at node 59)
Minimum accepted flit rate = 0.006 (at node 55)
Average accepted flit rate = 0.0278984
Maximum accepted flit rate = 0.052 (at node 35)
Average injected packet length = 1.99684
Average accepted packet length = 2.00056
Total in-flight flits = 1557 (0 measured)
latency change    = 0.455711
throughput change = 0.148304
latency change    = 0.486981
throughput change = 0.150378
Average latency for class 0 exceeded 500 cycles. Aborting simulation.
Too many sample periods needed to converge
Simulation unstable, ending ...
Total run time 2.23271
