BEGIN Configuration File: ./examples/project_inputs/config-iq_tp-bitcomp_c1ir-0.05_c0ir-0.15_prio-islip
//
// EVC Router Config File -         
//
// Jason Deng, Mike Wang        
//        

//
// Flow control
//

num_vcs     = 5;
vc_buf_size = 6;

wait_for_tail_credit = 0;

vc_allocator = islip;
sw_allocator = islip;
alloc_iters  = 2;

credit_delay   = 2;
routing_delay  = 1;
vc_alloc_delay = 1;
sw_alloc_delay = 1;
st_final_delay = 1;

input_speedup     = 1;
output_speedup    = 1;
internal_speedup  = 1.0;

//
// Traffic
//

sim_type = latency;

warmup_periods = 3;
sample_period  = 1000;
sim_count = 1;

//
//topoogy
//

topology = mesh;
k  = 8;
n  = 2;

//
// Routing
//

router = iq;
routing_function = dor;

packet_size = 2;
use_read_write = 0;

traffic  = bitcomp;
injection_rate = {0.15,0.05};
injection_rate_uses_flits = 1;

classes = 2;
class_priority = {0,0};
priority = class;

noq = 0;
hold_switch_for_packet = 0;
vc_prioritize_empty = 0;

//
// express virtual channel settings
//

evc = 1;
num_evcs = 1;
evc_prioritized_class = 1;
selective_vc_request = 1;
hold_switch_for_evc_packet = 1;
evc_next_route = 1;

END Configuration File: ./examples/project_inputs/config-iq_tp-bitcomp_c1ir-0.05_c0ir-0.15_prio-islip
0
Class 0:
Minimum packet latency = 18
Average packet latency = 55.4999
Maximum packet latency = 124
Minimum network latency = 18
Average network latency = 55.3659
Maximum network latency = 123
Slowest packet = 5229
Minimum flit latency = 17
Average flit latency = 53.9258
Maximum flit latency = 122
Slowest flit = 10459
Minimum fragmentation = 0
Average fragmentation = 0.786532
Maximum fragmentation = 13
Minimum injected packet rate = 0.056 (at node 45)
Average injected packet rate = 0.073625
Maximum injected packet rate = 0.097 (at node 26)
Minimum accepted packet rate = 0.055 (at node 18)
Average accepted packet rate = 0.0696094
Maximum accepted packet rate = 0.093 (at node 37)
Minimum injected flit rate = 0.112 (at node 45)
Average injected flit rate = 0.147156
Maximum injected flit rate = 0.194 (at node 26)
Minimum accepted flit rate = 0.11 (at node 18)
Average accepted flit rate = 0.139391
Maximum accepted flit rate = 0.187 (at node 37)
Average injected packet length = 1.99873
Average accepted packet length = 2.00247
Total in-flight flits = 503 (0 measured)
Class 1:
Minimum packet latency = 18
Average packet latency = 55.422
Maximum packet latency = 111
Minimum network latency = 18
Average network latency = 55.351
Maximum network latency = 111
Slowest packet = 1991
Minimum flit latency = 16
Average flit latency = 53.878
Maximum flit latency = 110
Slowest flit = 3982
Minimum fragmentation = 0
Average fragmentation = 0.75
Maximum fragmentation = 9
Minimum injected packet rate = 0.015 (at node 15)
Average injected packet rate = 0.0257344
Maximum injected packet rate = 0.036 (at node 38)
Minimum accepted packet rate = 0.013 (at node 23)
Average accepted packet rate = 0.0244375
Maximum accepted packet rate = 0.035 (at node 4)
Minimum injected flit rate = 0.03 (at node 15)
Average injected flit rate = 0.0514531
Maximum injected flit rate = 0.072 (at node 38)
Minimum accepted flit rate = 0.026 (at node 23)
Average accepted flit rate = 0.0489219
Maximum accepted flit rate = 0.07 (at node 4)
Average injected packet length = 1.99939
Average accepted packet length = 2.00192
Total in-flight flits = 163 (0 measured)
latency change    = 1
throughput change = 1
latency change    = 1
throughput change = 1
0
Class 0:
Minimum packet latency = 18
Average packet latency = 55.5958
Maximum packet latency = 139
Minimum network latency = 18
Average network latency = 55.4631
Maximum network latency = 138
Slowest packet = 10136
Minimum flit latency = 17
Average flit latency = 54.0284
Maximum flit latency = 137
Slowest flit = 20272
Minimum fragmentation = 0
Average fragmentation = 0.792195
Maximum fragmentation = 13
Minimum injected packet rate = 0.0575 (at node 48)
Average injected packet rate = 0.0744141
Maximum injected packet rate = 0.0875 (at node 26)
Minimum accepted packet rate = 0.053 (at node 15)
Average accepted packet rate = 0.0720703
Maximum accepted packet rate = 0.0865 (at node 37)
Minimum injected flit rate = 0.115 (at node 48)
Average injected flit rate = 0.148758
Maximum injected flit rate = 0.175 (at node 57)
Minimum accepted flit rate = 0.106 (at node 15)
Average accepted flit rate = 0.144203
Maximum accepted flit rate = 0.173 (at node 37)
Average injected packet length = 1.99906
Average accepted packet length = 2.00087
Total in-flight flits = 592 (0 measured)
Class 1:
Minimum packet latency = 18
Average packet latency = 55.9331
Maximum packet latency = 147
Minimum network latency = 18
Average network latency = 55.8621
Maximum network latency = 147
Slowest packet = 10096
Minimum flit latency = 16
Average flit latency = 54.3802
Maximum flit latency = 146
Slowest flit = 20192
Minimum fragmentation = 0
Average fragmentation = 0.773176
Maximum fragmentation = 13
Minimum injected packet rate = 0.0155 (at node 15)
Average injected packet rate = 0.0251016
Maximum injected packet rate = 0.036 (at node 8)
Minimum accepted packet rate = 0.015 (at node 48)
Average accepted packet rate = 0.0245234
Maximum accepted packet rate = 0.0355 (at node 55)
Minimum injected flit rate = 0.031 (at node 15)
Average injected flit rate = 0.0501797
Maximum injected flit rate = 0.072 (at node 8)
Minimum accepted flit rate = 0.03 (at node 48)
Average accepted flit rate = 0.0490703
Maximum accepted flit rate = 0.071 (at node 55)
Average injected packet length = 1.99907
Average accepted packet length = 2.00096
Total in-flight flits = 145 (0 measured)
latency change    = 0.00172467
throughput change = 0.0333731
latency change    = 0.00913779
throughput change = 0.003025
0
Class 0:
Minimum packet latency = 18
Average packet latency = 55.5629
Maximum packet latency = 153
Minimum network latency = 18
Average network latency = 55.4264
Maximum network latency = 153
Slowest packet = 17358
Minimum flit latency = 17
Average flit latency = 53.9932
Maximum flit latency = 152
Slowest flit = 34717
Minimum fragmentation = 0
Average fragmentation = 0.814983
Maximum fragmentation = 11
Minimum injected packet rate = 0.06 (at node 29)
Average injected packet rate = 0.0753281
Maximum injected packet rate = 0.086 (at node 11)
Minimum accepted packet rate = 0.059 (at node 2)
Average accepted packet rate = 0.0759219
Maximum accepted packet rate = 0.089 (at node 16)
Minimum injected flit rate = 0.12 (at node 29)
Average injected flit rate = 0.150734
Maximum injected flit rate = 0.173 (at node 56)
Minimum accepted flit rate = 0.118 (at node 2)
Average accepted flit rate = 0.151859
Maximum accepted flit rate = 0.178 (at node 16)
Average injected packet length = 2.00104
Average accepted packet length = 2.00021
Total in-flight flits = 515 (0 measured)
Class 1:
Minimum packet latency = 18
Average packet latency = 55.9974
Maximum packet latency = 144
Minimum network latency = 18
Average network latency = 55.9233
Maximum network latency = 144
Slowest packet = 17558
Minimum flit latency = 17
Average flit latency = 54.3939
Maximum flit latency = 143
Slowest flit = 35116
Minimum fragmentation = 0
Average fragmentation = 0.822809
Maximum fragmentation = 10
Minimum injected packet rate = 0.013 (at node 51)
Average injected packet rate = 0.024375
Maximum injected packet rate = 0.038 (at node 2)
Minimum accepted packet rate = 0.011 (at node 12)
Average accepted packet rate = 0.02425
Maximum accepted packet rate = 0.04 (at node 61)
Minimum injected flit rate = 0.026 (at node 51)
Average injected flit rate = 0.0487812
Maximum injected flit rate = 0.076 (at node 2)
Minimum accepted flit rate = 0.022 (at node 12)
Average accepted flit rate = 0.0485156
Maximum accepted flit rate = 0.08 (at node 61)
Average injected packet length = 2.00128
Average accepted packet length = 2.00064
Total in-flight flits = 160 (0 measured)
latency change    = 0.00059211
throughput change = 0.0504167
latency change    = 0.00114868
throughput change = 0.0114332
Warmed up ...Time used is 3000 cycles
1
Class 0:
Minimum packet latency = 18
Average packet latency = 55.0457
Maximum packet latency = 128
Minimum network latency = 18
Average network latency = 54.9074
Maximum network latency = 128
Slowest packet = 21577
Minimum flit latency = 17
Average flit latency = 53.7896
Maximum flit latency = 127
Slowest flit = 43154
Minimum fragmentation = 0
Average fragmentation = 0.793992
Maximum fragmentation = 15
Minimum injected packet rate = 0.058 (at node 9)
Average injected packet rate = 0.0738906
Maximum injected packet rate = 0.093 (at node 38)
Minimum accepted packet rate = 0.059 (at node 4)
Average accepted packet rate = 0.0737969
Maximum accepted packet rate = 0.091 (at node 25)
Minimum injected flit rate = 0.116 (at node 9)
Average injected flit rate = 0.14775
Maximum injected flit rate = 0.186 (at node 38)
Minimum accepted flit rate = 0.118 (at node 4)
Average accepted flit rate = 0.147641
Maximum accepted flit rate = 0.182 (at node 25)
Average injected packet length = 1.99958
Average accepted packet length = 2.00064
Total in-flight flits = 524 (524 measured)
Class 1:
Minimum packet latency = 18
Average packet latency = 55.2132
Maximum packet latency = 121
Minimum network latency = 18
Average network latency = 55.1517
Maximum network latency = 121
Slowest packet = 22453
Minimum flit latency = 17
Average flit latency = 53.9538
Maximum flit latency = 120
Slowest flit = 44906
Minimum fragmentation = 0
Average fragmentation = 0.872466
Maximum fragmentation = 11
Minimum injected packet rate = 0.012 (at node 10)
Average injected packet rate = 0.0254531
Maximum injected packet rate = 0.042 (at node 41)
Minimum accepted packet rate = 0.013 (at node 53)
Average accepted packet rate = 0.0251719
Maximum accepted packet rate = 0.041 (at node 46)
Minimum injected flit rate = 0.024 (at node 10)
Average injected flit rate = 0.0508906
Maximum injected flit rate = 0.084 (at node 41)
Minimum accepted flit rate = 0.026 (at node 53)
Average accepted flit rate = 0.0503437
Maximum accepted flit rate = 0.082 (at node 46)
Average injected packet length = 1.99939
Average accepted packet length = 2
Total in-flight flits = 196 (196 measured)
latency change    = 0.0093948
throughput change = 0.0285745
latency change    = 0.0142033
throughput change = 0.0363128
1
Class 0:
Minimum packet latency = 18
Average packet latency = 55.7398
Maximum packet latency = 131
Minimum network latency = 18
Average network latency = 55.601
Maximum network latency = 131
Slowest packet = 26221
Minimum flit latency = 17
Average flit latency = 54.3058
Maximum flit latency = 130
Slowest flit = 52442
Minimum fragmentation = 0
Average fragmentation = 0.791712
Maximum fragmentation = 15
Minimum injected packet rate = 0.0625 (at node 10)
Average injected packet rate = 0.074125
Maximum injected packet rate = 0.0865 (at node 3)
Minimum accepted packet rate = 0.0625 (at node 16)
Average accepted packet rate = 0.07425
Maximum accepted packet rate = 0.088 (at node 60)
Minimum injected flit rate = 0.1245 (at node 10)
Average injected flit rate = 0.148234
Maximum injected flit rate = 0.173 (at node 3)
Minimum accepted flit rate = 0.1245 (at node 53)
Average accepted flit rate = 0.148492
Maximum accepted flit rate = 0.176 (at node 60)
Average injected packet length = 1.99979
Average accepted packet length = 1.99989
Total in-flight flits = 484 (484 measured)
Class 1:
Minimum packet latency = 18
Average packet latency = 56.0159
Maximum packet latency = 132
Minimum network latency = 18
Average network latency = 55.952
Maximum network latency = 132
Slowest packet = 26651
Minimum flit latency = 17
Average flit latency = 54.5677
Maximum flit latency = 131
Slowest flit = 53303
Minimum fragmentation = 0
Average fragmentation = 0.849237
Maximum fragmentation = 11
Minimum injected packet rate = 0.0155 (at node 10)
Average injected packet rate = 0.02525
Maximum injected packet rate = 0.039 (at node 41)
Minimum accepted packet rate = 0.015 (at node 53)
Average accepted packet rate = 0.0252031
Maximum accepted packet rate = 0.038 (at node 22)
Minimum injected flit rate = 0.031 (at node 10)
Average injected flit rate = 0.0505078
Maximum injected flit rate = 0.078 (at node 41)
Minimum accepted flit rate = 0.03 (at node 53)
Average accepted flit rate = 0.0503984
Maximum accepted flit rate = 0.076 (at node 22)
Average injected packet length = 2.00031
Average accepted packet length = 1.99969
Total in-flight flits = 173 (173 measured)
latency change    = 0.0124515
throughput change = 0.00573473
latency change    = 0.0143297
throughput change = 0.0010851
1
Class 0:
Minimum packet latency = 18
Average packet latency = 56.0534
Maximum packet latency = 142
Minimum network latency = 18
Average network latency = 55.9202
Maximum network latency = 141
Slowest packet = 36838
Minimum flit latency = 17
Average flit latency = 54.5662
Maximum flit latency = 140
Slowest flit = 73676
Minimum fragmentation = 0
Average fragmentation = 0.798329
Maximum fragmentation = 15
Minimum injected packet rate = 0.065 (at node 15)
Average injected packet rate = 0.0750677
Maximum injected packet rate = 0.0866667 (at node 3)
Minimum accepted packet rate = 0.0656667 (at node 20)
Average accepted packet rate = 0.0749427
Maximum accepted packet rate = 0.0876667 (at node 60)
Minimum injected flit rate = 0.13 (at node 15)
Average injected flit rate = 0.150135
Maximum injected flit rate = 0.173333 (at node 3)
Minimum accepted flit rate = 0.131333 (at node 20)
Average accepted flit rate = 0.149906
Maximum accepted flit rate = 0.175333 (at node 60)
Average injected packet length = 2
Average accepted packet length = 2.00028
Total in-flight flits = 559 (559 measured)
Class 1:
Minimum packet latency = 18
Average packet latency = 55.9125
Maximum packet latency = 136
Minimum network latency = 18
Average network latency = 55.8491
Maximum network latency = 136
Slowest packet = 36924
Minimum flit latency = 17
Average flit latency = 54.409
Maximum flit latency = 135
Slowest flit = 73849
Minimum fragmentation = 0
Average fragmentation = 0.858799
Maximum fragmentation = 13
Minimum injected packet rate = 0.0166667 (at node 10)
Average injected packet rate = 0.0252604
Maximum injected packet rate = 0.0346667 (at node 17)
Minimum accepted packet rate = 0.0166667 (at node 53)
Average accepted packet rate = 0.0251406
Maximum accepted packet rate = 0.0346667 (at node 46)
Minimum injected flit rate = 0.0333333 (at node 10)
Average injected flit rate = 0.0505208
Maximum injected flit rate = 0.0693333 (at node 17)
Minimum accepted flit rate = 0.0333333 (at node 53)
Average accepted flit rate = 0.050276
Maximum accepted flit rate = 0.0696667 (at node 46)
Average injected packet length = 2
Average accepted packet length = 1.99979
Total in-flight flits = 207 (207 measured)
latency change    = 0.00559589
throughput change = 0.00943298
latency change    = 0.00184867
throughput change = 0.00243448
Draining all recorded packets ...
Draining remaining packets ...
Time taken is 6173 cycles
====== Traffic class 0 ======
Overall minimum packet latency = 18 (1 samples)
Overall average packet latency = 56.1934 (1 samples)
Overall maximum packet latency = 142 (1 samples)
Overall minimum network latency = 18 (1 samples)
Overall average network latency = 56.0602 (1 samples)
Overall maximum network latency = 141 (1 samples)
Overall minimum flit latency = 17 (1 samples)
Overall average flit latency = 54.704 (1 samples)
Overall maximum flit latency = 140 (1 samples)
Overall minimum fragmentation = 0 (1 samples)
Overall average fragmentation = 0.800805 (1 samples)
Overall maximum fragmentation = 15 (1 samples)
Overall minimum injected packet rate = 0.065 (1 samples)
Overall average injected packet rate = 0.0750677 (1 samples)
Overall maximum injected packet rate = 0.0866667 (1 samples)
Overall minimum accepted packet rate = 0.0656667 (1 samples)
Overall average accepted packet rate = 0.0749427 (1 samples)
Overall maximum accepted packet rate = 0.0876667 (1 samples)
Overall minimum injected flit rate = 0.13 (1 samples)
Overall average injected flit rate = 0.150135 (1 samples)
Overall maximum injected flit rate = 0.173333 (1 samples)
Overall minimum accepted flit rate = 0.131333 (1 samples)
Overall average accepted flit rate = 0.149906 (1 samples)
Overall maximum accepted flit rate = 0.175333 (1 samples)
Overall average injected packet size = 2 (1 samples)
Overall average accepted packet size = 2.00028 (1 samples)
Overall average hops = 9.04302 (1 samples)
====== Traffic class 1 ======
Overall minimum packet latency = 18 (1 samples)
Overall average packet latency = 56.0975 (1 samples)
Overall maximum packet latency = 136 (1 samples)
Overall minimum network latency = 18 (1 samples)
Overall average network latency = 56.0346 (1 samples)
Overall maximum network latency = 136 (1 samples)
Overall minimum flit latency = 17 (1 samples)
Overall average flit latency = 54.5599 (1 samples)
Overall maximum flit latency = 135 (1 samples)
Overall minimum fragmentation = 0 (1 samples)
Overall average fragmentation = 0.859175 (1 samples)
Overall maximum fragmentation = 13 (1 samples)
Overall minimum injected packet rate = 0.0166667 (1 samples)
Overall average injected packet rate = 0.0252604 (1 samples)
Overall maximum injected packet rate = 0.0346667 (1 samples)
Overall minimum accepted packet rate = 0.0166667 (1 samples)
Overall average accepted packet rate = 0.0251406 (1 samples)
Overall maximum accepted packet rate = 0.0346667 (1 samples)
Overall minimum injected flit rate = 0.0333333 (1 samples)
Overall average injected flit rate = 0.0505208 (1 samples)
Overall maximum injected flit rate = 0.0693333 (1 samples)
Overall minimum accepted flit rate = 0.0333333 (1 samples)
Overall average accepted flit rate = 0.050276 (1 samples)
Overall maximum accepted flit rate = 0.0696667 (1 samples)
Overall average injected packet size = 2 (1 samples)
Overall average accepted packet size = 1.99979 (1 samples)
Overall average hops = 8.97155 (1 samples)
Total run time 7.25715
