BEGIN Configuration File: ./examples/project_inputs/config-iq_tp-transpose_c1ir-0.05_c0ir-0.39_prio-islip
//
// EVC Router Config File -         
//
// Jason Deng, Mike Wang        
//        

//
// Flow control
//

num_vcs     = 5;
vc_buf_size = 6;

wait_for_tail_credit = 0;

vc_allocator = islip;
sw_allocator = islip;
alloc_iters  = 2;

credit_delay   = 2;
routing_delay  = 1;
vc_alloc_delay = 1;
sw_alloc_delay = 1;
st_final_delay = 1;

input_speedup     = 1;
output_speedup    = 1;
internal_speedup  = 1.0;

//
// Traffic
//

sim_type = latency;

warmup_periods = 3;
sample_period  = 1000;
sim_count = 1;

//
//topoogy
//

topology = mesh;
k  = 8;
n  = 2;

//
// Routing
//

router = iq;
routing_function = dor;

packet_size = 2;
use_read_write = 0;

traffic  = transpose;
injection_rate = {0.39,0.05};
injection_rate_uses_flits = 1;

classes = 2;
class_priority = {0,0};
priority = class;

noq = 0;
hold_switch_for_packet = 0;
vc_prioritize_empty = 0;

//
// express virtual channel settings
//

evc = 1;
num_evcs = 1;
evc_prioritized_class = 1;
selective_vc_request = 1;
hold_switch_for_evc_packet = 1;
evc_next_route = 1;

END Configuration File: ./examples/project_inputs/config-iq_tp-transpose_c1ir-0.05_c0ir-0.39_prio-islip
0
Class 0:
Minimum packet latency = 8
Average packet latency = 111.976
Maximum packet latency = 936
Minimum network latency = 8
Average network latency = 95.3996
Maximum network latency = 936
Slowest packet = 832
Minimum flit latency = 6
Average flit latency = 93.5135
Maximum flit latency = 935
Slowest flit = 1664
Minimum fragmentation = 0
Average fragmentation = 1.22681
Maximum fragmentation = 18
Minimum injected packet rate = 0.032 (at node 6)
Average injected packet rate = 0.121266
Maximum injected packet rate = 0.219 (at node 28)
Minimum accepted packet rate = 0.009 (at node 48)
Average accepted packet rate = 0.105266
Maximum accepted packet rate = 0.205 (at node 46)
Minimum injected flit rate = 0.064 (at node 6)
Average injected flit rate = 0.242297
Maximum injected flit rate = 0.437 (at node 28)
Minimum accepted flit rate = 0.018 (at node 48)
Average accepted flit rate = 0.210828
Maximum accepted flit rate = 0.41 (at node 19)
Average injected packet length = 1.99807
Average accepted packet length = 2.00282
Total in-flight flits = 2087 (0 measured)
Class 1:
Minimum packet latency = 8
Average packet latency = 126.67
Maximum packet latency = 889
Minimum network latency = 8
Average network latency = 122.403
Maximum network latency = 889
Slowest packet = 699
Minimum flit latency = 7
Average flit latency = 119.938
Maximum flit latency = 888
Slowest flit = 1398
Minimum fragmentation = 0
Average fragmentation = 1.25273
Maximum fragmentation = 11
Minimum injected packet rate = 0.006 (at node 6)
Average injected packet rate = 0.0218125
Maximum injected packet rate = 0.032 (at node 25)
Minimum accepted packet rate = 0 (at node 7)
Average accepted packet rate = 0.0157656
Maximum accepted packet rate = 0.031 (at node 45)
Minimum injected flit rate = 0.012 (at node 6)
Average injected flit rate = 0.0435781
Maximum injected flit rate = 0.064 (at node 25)
Minimum accepted flit rate = 0 (at node 7)
Average accepted flit rate = 0.0316562
Maximum accepted flit rate = 0.062 (at node 45)
Average injected packet length = 1.99785
Average accepted packet length = 2.00793
Total in-flight flits = 816 (0 measured)
latency change    = 1
throughput change = 1
latency change    = 1
throughput change = 1
0
Class 0:
Minimum packet latency = 8
Average packet latency = 195.014
Maximum packet latency = 1849
Minimum network latency = 8
Average network latency = 115.567
Maximum network latency = 1849
Slowest packet = 1473
Minimum flit latency = 6
Average flit latency = 113.407
Maximum flit latency = 1848
Slowest flit = 2946
Minimum fragmentation = 0
Average fragmentation = 1.2932
Maximum fragmentation = 18
Minimum injected packet rate = 0.0185 (at node 6)
Average injected packet rate = 0.112859
Maximum injected packet rate = 0.213 (at node 28)
Minimum accepted packet rate = 0.0085 (at node 7)
Average accepted packet rate = 0.105195
Maximum accepted packet rate = 0.2075 (at node 35)
Minimum injected flit rate = 0.037 (at node 6)
Average injected flit rate = 0.225633
Maximum injected flit rate = 0.426 (at node 28)
Minimum accepted flit rate = 0.017 (at node 7)
Average accepted flit rate = 0.210477
Maximum accepted flit rate = 0.415 (at node 35)
Average injected packet length = 1.99924
Average accepted packet length = 2.00082
Total in-flight flits = 2009 (0 measured)
Class 1:
Minimum packet latency = 8
Average packet latency = 206.312
Maximum packet latency = 1865
Minimum network latency = 8
Average network latency = 190.582
Maximum network latency = 1865
Slowest packet = 1481
Minimum flit latency = 6
Average flit latency = 187.706
Maximum flit latency = 1864
Slowest flit = 2962
Minimum fragmentation = 0
Average fragmentation = 1.25848
Maximum fragmentation = 15
Minimum injected packet rate = 0.0055 (at node 6)
Average injected packet rate = 0.0216641
Maximum injected packet rate = 0.0315 (at node 28)
Minimum accepted packet rate = 0.0005 (at node 15)
Average accepted packet rate = 0.0181953
Maximum accepted packet rate = 0.0305 (at node 35)
Minimum injected flit rate = 0.011 (at node 6)
Average injected flit rate = 0.0432734
Maximum injected flit rate = 0.063 (at node 28)
Minimum accepted flit rate = 0.001 (at node 15)
Average accepted flit rate = 0.0364141
Maximum accepted flit rate = 0.061 (at node 35)
Average injected packet length = 1.99748
Average accepted packet length = 2.00129
Total in-flight flits = 925 (0 measured)
latency change    = 0.425808
throughput change = 0.00167032
latency change    = 0.386028
throughput change = 0.130659
0
Class 0:
Minimum packet latency = 8
Average packet latency = 430.522
Maximum packet latency = 2804
Minimum network latency = 8
Average network latency = 136.963
Maximum network latency = 2799
Slowest packet = 1620
Minimum flit latency = 6
Average flit latency = 134.64
Maximum flit latency = 2798
Slowest flit = 3240
Minimum fragmentation = 0
Average fragmentation = 1.33587
Maximum fragmentation = 20
Minimum injected packet rate = 0.003 (at node 7)
Average injected packet rate = 0.104219
Maximum injected packet rate = 0.214 (at node 46)
Minimum accepted packet rate = 0.006 (at node 15)
Average accepted packet rate = 0.104906
Maximum accepted packet rate = 0.214 (at node 17)
Minimum injected flit rate = 0.006 (at node 7)
Average injected flit rate = 0.208313
Maximum injected flit rate = 0.427 (at node 46)
Minimum accepted flit rate = 0.012 (at node 15)
Average accepted flit rate = 0.209922
Maximum accepted flit rate = 0.427 (at node 17)
Average injected packet length = 1.9988
Average accepted packet length = 2.00104
Total in-flight flits = 1912 (0 measured)
Class 1:
Minimum packet latency = 8
Average packet latency = 377.906
Maximum packet latency = 2685
Minimum network latency = 8
Average network latency = 310.941
Maximum network latency = 2685
Slowest packet = 1712
Minimum flit latency = 6
Average flit latency = 307.743
Maximum flit latency = 2684
Slowest flit = 3424
Minimum fragmentation = 0
Average fragmentation = 1.29198
Maximum fragmentation = 17
Minimum injected packet rate = 0.004 (at node 6)
Average injected packet rate = 0.0214063
Maximum injected packet rate = 0.035 (at node 0)
Minimum accepted packet rate = 0 (at node 7)
Average accepted packet rate = 0.0210313
Maximum accepted packet rate = 0.036 (at node 0)
Minimum injected flit rate = 0.008 (at node 6)
Average injected flit rate = 0.0428125
Maximum injected flit rate = 0.07 (at node 0)
Minimum accepted flit rate = 0 (at node 7)
Average accepted flit rate = 0.0420312
Maximum accepted flit rate = 0.072 (at node 0)
Average injected packet length = 2
Average accepted packet length = 1.99851
Total in-flight flits = 973 (0 measured)
latency change    = 0.547028
throughput change = 0.00264235
latency change    = 0.454064
throughput change = 0.133643
Average latency for class 0 exceeded 500 cycles. Aborting simulation.
Too many sample periods needed to converge
Simulation unstable, ending ...
Total run time 3.05077
