BEGIN Configuration File: ./examples/project_inputs/config-iq_tp-bitcomp_c1ir-0.05_c0ir-0.17_prio-islip
//
// EVC Router Config File -         
//
// Jason Deng, Mike Wang        
//        

//
// Flow control
//

num_vcs     = 5;
vc_buf_size = 6;

wait_for_tail_credit = 0;

vc_allocator = islip;
sw_allocator = islip;
alloc_iters  = 2;

credit_delay   = 2;
routing_delay  = 1;
vc_alloc_delay = 1;
sw_alloc_delay = 1;
st_final_delay = 1;

input_speedup     = 1;
output_speedup    = 1;
internal_speedup  = 1.0;

//
// Traffic
//

sim_type = latency;

warmup_periods = 3;
sample_period  = 1000;
sim_count = 1;

//
//topoogy
//

topology = mesh;
k  = 8;
n  = 2;

//
// Routing
//

router = iq;
routing_function = dor;

packet_size = 2;
use_read_write = 0;

traffic  = bitcomp;
injection_rate = {0.17,0.05};
injection_rate_uses_flits = 1;

classes = 2;
class_priority = {0,0};
priority = class;

noq = 0;
hold_switch_for_packet = 0;
vc_prioritize_empty = 0;

//
// express virtual channel settings
//

evc = 1;
num_evcs = 1;
evc_prioritized_class = 1;
selective_vc_request = 1;
hold_switch_for_evc_packet = 1;
evc_next_route = 1;

END Configuration File: ./examples/project_inputs/config-iq_tp-bitcomp_c1ir-0.05_c0ir-0.17_prio-islip
0
Class 0:
Minimum packet latency = 18
Average packet latency = 60.954
Maximum packet latency = 160
Minimum network latency = 18
Average network latency = 60.7897
Maximum network latency = 159
Slowest packet = 5822
Minimum flit latency = 16
Average flit latency = 59.2865
Maximum flit latency = 159
Slowest flit = 11732
Minimum fragmentation = 0
Average fragmentation = 0.964095
Maximum fragmentation = 12
Minimum injected packet rate = 0.065 (at node 40)
Average injected packet rate = 0.0849375
Maximum injected packet rate = 0.101 (at node 63)
Minimum accepted packet rate = 0.059 (at node 6)
Average accepted packet rate = 0.0792031
Maximum accepted packet rate = 0.095 (at node 3)
Minimum injected flit rate = 0.13 (at node 40)
Average injected flit rate = 0.169766
Maximum injected flit rate = 0.202 (at node 63)
Minimum accepted flit rate = 0.118 (at node 6)
Average accepted flit rate = 0.158625
Maximum accepted flit rate = 0.19 (at node 3)
Average injected packet length = 1.99871
Average accepted packet length = 2.00276
Total in-flight flits = 720 (0 measured)
Class 1:
Minimum packet latency = 18
Average packet latency = 60.789
Maximum packet latency = 155
Minimum network latency = 18
Average network latency = 60.7137
Maximum network latency = 155
Slowest packet = 5754
Minimum flit latency = 17
Average flit latency = 59.091
Maximum flit latency = 154
Slowest flit = 11508
Minimum fragmentation = 0
Average fragmentation = 1.00411
Maximum fragmentation = 19
Minimum injected packet rate = 0.017 (at node 23)
Average injected packet rate = 0.0245313
Maximum injected packet rate = 0.041 (at node 34)
Minimum accepted packet rate = 0.015 (at node 16)
Average accepted packet rate = 0.0228125
Maximum accepted packet rate = 0.038 (at node 29)
Minimum injected flit rate = 0.034 (at node 23)
Average injected flit rate = 0.0490312
Maximum injected flit rate = 0.082 (at node 34)
Minimum accepted flit rate = 0.03 (at node 16)
Average accepted flit rate = 0.0456875
Maximum accepted flit rate = 0.076 (at node 29)
Average injected packet length = 1.99873
Average accepted packet length = 2.00274
Total in-flight flits = 216 (0 measured)
latency change    = 1
throughput change = 1
latency change    = 1
throughput change = 1
0
Class 0:
Minimum packet latency = 18
Average packet latency = 62.8706
Maximum packet latency = 172
Minimum network latency = 18
Average network latency = 62.7153
Maximum network latency = 170
Slowest packet = 5953
Minimum flit latency = 16
Average flit latency = 61.1761
Maximum flit latency = 169
Slowest flit = 11906
Minimum fragmentation = 0
Average fragmentation = 1.01717
Maximum fragmentation = 19
Minimum injected packet rate = 0.07 (at node 40)
Average injected packet rate = 0.084625
Maximum injected packet rate = 0.1025 (at node 9)
Minimum accepted packet rate = 0.0635 (at node 23)
Average accepted packet rate = 0.0818906
Maximum accepted packet rate = 0.0965 (at node 54)
Minimum injected flit rate = 0.14 (at node 40)
Average injected flit rate = 0.169187
Maximum injected flit rate = 0.205 (at node 9)
Minimum accepted flit rate = 0.1275 (at node 23)
Average accepted flit rate = 0.163898
Maximum accepted flit rate = 0.194 (at node 54)
Average injected packet length = 1.99926
Average accepted packet length = 2.00143
Total in-flight flits = 685 (0 measured)
Class 1:
Minimum packet latency = 18
Average packet latency = 62.4532
Maximum packet latency = 167
Minimum network latency = 18
Average network latency = 62.3797
Maximum network latency = 167
Slowest packet = 6020
Minimum flit latency = 17
Average flit latency = 60.7426
Maximum flit latency = 166
Slowest flit = 12040
Minimum fragmentation = 0
Average fragmentation = 1.04779
Maximum fragmentation = 19
Minimum injected packet rate = 0.0165 (at node 56)
Average injected packet rate = 0.0252656
Maximum injected packet rate = 0.038 (at node 34)
Minimum accepted packet rate = 0.015 (at node 7)
Average accepted packet rate = 0.0243594
Maximum accepted packet rate = 0.037 (at node 29)
Minimum injected flit rate = 0.033 (at node 56)
Average injected flit rate = 0.0505078
Maximum injected flit rate = 0.076 (at node 34)
Minimum accepted flit rate = 0.03 (at node 7)
Average accepted flit rate = 0.0487656
Maximum accepted flit rate = 0.074 (at node 29)
Average injected packet length = 1.99907
Average accepted packet length = 2.00192
Total in-flight flits = 226 (0 measured)
latency change    = 0.0304848
throughput change = 0.032175
latency change    = 0.0266461
throughput change = 0.0631208
0
Class 0:
Minimum packet latency = 18
Average packet latency = 63.2751
Maximum packet latency = 143
Minimum network latency = 18
Average network latency = 63.1212
Maximum network latency = 143
Slowest packet = 14083
Minimum flit latency = 17
Average flit latency = 61.5347
Maximum flit latency = 142
Slowest flit = 28167
Minimum fragmentation = 0
Average fragmentation = 1.08775
Maximum fragmentation = 17
Minimum injected packet rate = 0.073 (at node 2)
Average injected packet rate = 0.0848125
Maximum injected packet rate = 0.112 (at node 27)
Minimum accepted packet rate = 0.066 (at node 48)
Average accepted packet rate = 0.0854687
Maximum accepted packet rate = 0.11 (at node 36)
Minimum injected flit rate = 0.146 (at node 2)
Average injected flit rate = 0.169641
Maximum injected flit rate = 0.224 (at node 27)
Minimum accepted flit rate = 0.132 (at node 48)
Average accepted flit rate = 0.170859
Maximum accepted flit rate = 0.22 (at node 36)
Average injected packet length = 2.00018
Average accepted packet length = 1.99909
Total in-flight flits = 608 (0 measured)
Class 1:
Minimum packet latency = 18
Average packet latency = 64.7591
Maximum packet latency = 143
Minimum network latency = 18
Average network latency = 64.6891
Maximum network latency = 143
Slowest packet = 19849
Minimum flit latency = 17
Average flit latency = 63.0178
Maximum flit latency = 142
Slowest flit = 39698
Minimum fragmentation = 0
Average fragmentation = 1.0412
Maximum fragmentation = 10
Minimum injected packet rate = 0.014 (at node 40)
Average injected packet rate = 0.0248281
Maximum injected packet rate = 0.035 (at node 2)
Minimum accepted packet rate = 0.013 (at node 23)
Average accepted packet rate = 0.0250313
Maximum accepted packet rate = 0.036 (at node 56)
Minimum injected flit rate = 0.028 (at node 40)
Average injected flit rate = 0.0497031
Maximum injected flit rate = 0.07 (at node 2)
Minimum accepted flit rate = 0.027 (at node 23)
Average accepted flit rate = 0.0500781
Maximum accepted flit rate = 0.072 (at node 56)
Average injected packet length = 2.00189
Average accepted packet length = 2.00062
Total in-flight flits = 199 (0 measured)
latency change    = 0.00639274
throughput change = 0.0407407
latency change    = 0.035607
throughput change = 0.026209
Warmed up ...Time used is 3000 cycles
1
Class 0:
Minimum packet latency = 18
Average packet latency = 61.5
Maximum packet latency = 157
Minimum network latency = 18
Average network latency = 61.3601
Maximum network latency = 157
Slowest packet = 22789
Minimum flit latency = 17
Average flit latency = 60.0752
Maximum flit latency = 156
Slowest flit = 45579
Minimum fragmentation = 0
Average fragmentation = 1.00121
Maximum fragmentation = 16
Minimum injected packet rate = 0.057 (at node 20)
Average injected packet rate = 0.0832656
Maximum injected packet rate = 0.101 (at node 35)
Minimum accepted packet rate = 0.053 (at node 43)
Average accepted packet rate = 0.0825469
Maximum accepted packet rate = 0.103 (at node 28)
Minimum injected flit rate = 0.114 (at node 20)
Average injected flit rate = 0.166531
Maximum injected flit rate = 0.202 (at node 35)
Minimum accepted flit rate = 0.106 (at node 43)
Average accepted flit rate = 0.165078
Maximum accepted flit rate = 0.206 (at node 28)
Average injected packet length = 2
Average accepted packet length = 1.99981
Total in-flight flits = 699 (699 measured)
Class 1:
Minimum packet latency = 18
Average packet latency = 62.1184
Maximum packet latency = 135
Minimum network latency = 18
Average network latency = 62.0343
Maximum network latency = 135
Slowest packet = 21652
Minimum flit latency = 17
Average flit latency = 60.8175
Maximum flit latency = 134
Slowest flit = 43305
Minimum fragmentation = 0
Average fragmentation = 1.08021
Maximum fragmentation = 13
Minimum injected packet rate = 0.016 (at node 2)
Average injected packet rate = 0.0259844
Maximum injected packet rate = 0.037 (at node 42)
Minimum accepted packet rate = 0.015 (at node 61)
Average accepted packet rate = 0.0257656
Maximum accepted packet rate = 0.038 (at node 21)
Minimum injected flit rate = 0.032 (at node 2)
Average injected flit rate = 0.0519375
Maximum injected flit rate = 0.074 (at node 42)
Minimum accepted flit rate = 0.03 (at node 61)
Average accepted flit rate = 0.0515469
Maximum accepted flit rate = 0.076 (at node 21)
Average injected packet length = 1.9988
Average accepted packet length = 2.00061
Total in-flight flits = 228 (228 measured)
latency change    = 0.028864
throughput change = 0.0350213
latency change    = 0.0425105
throughput change = 0.0284935
1
Class 0:
Minimum packet latency = 18
Average packet latency = 62.4957
Maximum packet latency = 175
Minimum network latency = 18
Average network latency = 62.3479
Maximum network latency = 174
Slowest packet = 33794
Minimum flit latency = 16
Average flit latency = 60.895
Maximum flit latency = 173
Slowest flit = 67588
Minimum fragmentation = 0
Average fragmentation = 1.02712
Maximum fragmentation = 16
Minimum injected packet rate = 0.072 (at node 4)
Average injected packet rate = 0.084125
Maximum injected packet rate = 0.1005 (at node 35)
Minimum accepted packet rate = 0.072 (at node 14)
Average accepted packet rate = 0.0836563
Maximum accepted packet rate = 0.1025 (at node 28)
Minimum injected flit rate = 0.1445 (at node 4)
Average injected flit rate = 0.168258
Maximum injected flit rate = 0.201 (at node 35)
Minimum accepted flit rate = 0.144 (at node 14)
Average accepted flit rate = 0.167336
Maximum accepted flit rate = 0.205 (at node 28)
Average injected packet length = 2.00009
Average accepted packet length = 2.00028
Total in-flight flits = 723 (723 measured)
Class 1:
Minimum packet latency = 18
Average packet latency = 63.249
Maximum packet latency = 171
Minimum network latency = 18
Average network latency = 63.1712
Maximum network latency = 171
Slowest packet = 33825
Minimum flit latency = 17
Average flit latency = 61.7029
Maximum flit latency = 170
Slowest flit = 67650
Minimum fragmentation = 0
Average fragmentation = 1.07969
Maximum fragmentation = 13
Minimum injected packet rate = 0.017 (at node 61)
Average injected packet rate = 0.0258672
Maximum injected packet rate = 0.0325 (at node 18)
Minimum accepted packet rate = 0.018 (at node 2)
Average accepted packet rate = 0.026
Maximum accepted packet rate = 0.035 (at node 45)
Minimum injected flit rate = 0.034 (at node 61)
Average injected flit rate = 0.0517266
Maximum injected flit rate = 0.065 (at node 18)
Minimum accepted flit rate = 0.0355 (at node 2)
Average accepted flit rate = 0.0519844
Maximum accepted flit rate = 0.07 (at node 45)
Average injected packet length = 1.9997
Average accepted packet length = 1.9994
Total in-flight flits = 167 (167 measured)
latency change    = 0.0159326
throughput change = 0.0134927
latency change    = 0.0178757
throughput change = 0.00841599
1
Class 0:
Minimum packet latency = 18
Average packet latency = 63.397
Maximum packet latency = 220
Minimum network latency = 18
Average network latency = 63.2492
Maximum network latency = 220
Slowest packet = 34072
Minimum flit latency = 16
Average flit latency = 61.7442
Maximum flit latency = 219
Slowest flit = 68145
Minimum fragmentation = 0
Average fragmentation = 1.03024
Maximum fragmentation = 16
Minimum injected packet rate = 0.074 (at node 4)
Average injected packet rate = 0.0844792
Maximum injected packet rate = 0.0966667 (at node 60)
Minimum accepted packet rate = 0.074 (at node 59)
Average accepted packet rate = 0.084276
Maximum accepted packet rate = 0.0963333 (at node 28)
Minimum injected flit rate = 0.148333 (at node 4)
Average injected flit rate = 0.168969
Maximum injected flit rate = 0.193333 (at node 60)
Minimum accepted flit rate = 0.147667 (at node 59)
Average accepted flit rate = 0.168563
Maximum accepted flit rate = 0.192667 (at node 28)
Average injected packet length = 2.00012
Average accepted packet length = 2.00012
Total in-flight flits = 682 (682 measured)
Class 1:
Minimum packet latency = 18
Average packet latency = 63.6701
Maximum packet latency = 215
Minimum network latency = 18
Average network latency = 63.5926
Maximum network latency = 215
Slowest packet = 34611
Minimum flit latency = 17
Average flit latency = 62.0502
Maximum flit latency = 214
Slowest flit = 69223
Minimum fragmentation = 0
Average fragmentation = 1.08902
Maximum fragmentation = 13
Minimum injected packet rate = 0.0203333 (at node 23)
Average injected packet rate = 0.0259427
Maximum injected packet rate = 0.0333333 (at node 18)
Minimum accepted packet rate = 0.0206667 (at node 40)
Average accepted packet rate = 0.0258125
Maximum accepted packet rate = 0.034 (at node 45)
Minimum injected flit rate = 0.0406667 (at node 23)
Average injected flit rate = 0.0518802
Maximum injected flit rate = 0.0666667 (at node 18)
Minimum accepted flit rate = 0.041 (at node 40)
Average accepted flit rate = 0.0516198
Maximum accepted flit rate = 0.068 (at node 45)
Average injected packet length = 1.9998
Average accepted packet length = 1.9998
Total in-flight flits = 250 (250 measured)
latency change    = 0.0142163
throughput change = 0.0072766
latency change    = 0.00661392
throughput change = 0.00706286
Draining all recorded packets ...
Draining remaining packets ...
Time taken is 6202 cycles
====== Traffic class 0 ======
Overall minimum packet latency = 18 (1 samples)
Overall average packet latency = 63.5763 (1 samples)
Overall maximum packet latency = 220 (1 samples)
Overall minimum network latency = 18 (1 samples)
Overall average network latency = 63.4268 (1 samples)
Overall maximum network latency = 220 (1 samples)
Overall minimum flit latency = 16 (1 samples)
Overall average flit latency = 61.9226 (1 samples)
Overall maximum flit latency = 219 (1 samples)
Overall minimum fragmentation = 0 (1 samples)
Overall average fragmentation = 1.03126 (1 samples)
Overall maximum fragmentation = 16 (1 samples)
Overall minimum injected packet rate = 0.074 (1 samples)
Overall average injected packet rate = 0.0844792 (1 samples)
Overall maximum injected packet rate = 0.0966667 (1 samples)
Overall minimum accepted packet rate = 0.074 (1 samples)
Overall average accepted packet rate = 0.084276 (1 samples)
Overall maximum accepted packet rate = 0.0963333 (1 samples)
Overall minimum injected flit rate = 0.148333 (1 samples)
Overall average injected flit rate = 0.168969 (1 samples)
Overall maximum injected flit rate = 0.193333 (1 samples)
Overall minimum accepted flit rate = 0.147667 (1 samples)
Overall average accepted flit rate = 0.168563 (1 samples)
Overall maximum accepted flit rate = 0.192667 (1 samples)
Overall average injected packet size = 2.00012 (1 samples)
Overall average accepted packet size = 2.00012 (1 samples)
Overall average hops = 9.00912 (1 samples)
====== Traffic class 1 ======
Overall minimum packet latency = 18 (1 samples)
Overall average packet latency = 63.8039 (1 samples)
Overall maximum packet latency = 215 (1 samples)
Overall minimum network latency = 18 (1 samples)
Overall average network latency = 63.7268 (1 samples)
Overall maximum network latency = 215 (1 samples)
Overall minimum flit latency = 17 (1 samples)
Overall average flit latency = 62.1281 (1 samples)
Overall maximum flit latency = 214 (1 samples)
Overall minimum fragmentation = 0 (1 samples)
Overall average fragmentation = 1.09556 (1 samples)
Overall maximum fragmentation = 13 (1 samples)
Overall minimum injected packet rate = 0.0203333 (1 samples)
Overall average injected packet rate = 0.0259427 (1 samples)
Overall maximum injected packet rate = 0.0333333 (1 samples)
Overall minimum accepted packet rate = 0.0206667 (1 samples)
Overall average accepted packet rate = 0.0258125 (1 samples)
Overall maximum accepted packet rate = 0.034 (1 samples)
Overall minimum injected flit rate = 0.0406667 (1 samples)
Overall average injected flit rate = 0.0518802 (1 samples)
Overall maximum injected flit rate = 0.0666667 (1 samples)
Overall minimum accepted flit rate = 0.041 (1 samples)
Overall average accepted flit rate = 0.0516198 (1 samples)
Overall maximum accepted flit rate = 0.068 (1 samples)
Overall average injected packet size = 1.9998 (1 samples)
Overall average accepted packet size = 1.9998 (1 samples)
Overall average hops = 8.98996 (1 samples)
Total run time 7.87148
